#------------------------------------------------------------------------------
#$Date: 2016-01-27 05:20:54 +0200 (Wed, 27 Jan 2016) $
#$Revision: 175119 $
#$URL: svn://www.crystallography.net/cod/cif/7/11/86/7118621.cif $
#------------------------------------------------------------------------------
#
# This file is available in the Crystallography Open Database (COD),
# http://www.crystallography.net/
#
# All data on this site have been placed in the public domain by the
# contributors.
#
data_7118621
loop_
_publ_author_name
'Henne, Florian D.'
'Watt, Fabian A.'
'Schwedtmann, Kai'
'Hennersdorf, Felix'
'Kokoschka, Malte'
'Weigand, Jan J.'
_publ_section_title
;
 Tetra-cationic imidazoliumyl-substituted phosphorus-sulfur heterocycles
 from a cationic organophosphorus sulfide.
;
_journal_issue                   10
_journal_name_full
'Chemical communications (Cambridge, England)'
_journal_page_first              2023
_journal_page_last               2026
_journal_paper_doi               10.1039/c5cc08182c
_journal_volume                  52
_journal_year                    2016
_chemical_formula_moiety         'C14 H20 N4 P S2, C F3 O3 S'
_chemical_formula_sum            'C15 H20 F3 N4 O3 P S3'
_chemical_formula_weight         488.50
_space_group_crystal_system      monoclinic
_space_group_IT_number           11
_space_group_name_Hall           '-P 2yb'
_space_group_name_H-M_alt        'P 1 21/m 1'
_symmetry_space_group_name_Hall  '-P 2yb'
_symmetry_space_group_name_H-M   'P 1 21/m 1'
_atom_sites_solution_hydrogens   geom
_atom_sites_solution_primary     direct
_audit_creation_date             2015-09-07
_audit_creation_method
;
Olex2 1.2
(compiled 2015.01.26 svn.r3150 for OlexSys, GUI svn.r4998)
;
_cell_angle_alpha                90
_cell_angle_beta                 91.568(2)
_cell_angle_gamma                90
_cell_formula_units_Z            2
_cell_length_a                   6.5855(4)
_cell_length_b                   12.5308(6)
_cell_length_c                   12.4698(7)
_cell_measurement_reflns_used    4744
_cell_measurement_temperature    153
_cell_measurement_theta_max      29.476
_cell_measurement_theta_min      2.304
_cell_volume                     1028.64(10)
_computing_cell_refinement       'SAINT v8.34A (Bruker, 2013)'
_computing_data_reduction        'SAINT v8.34A (Bruker, 2013)'
_computing_molecular_graphics    'Olex2 (Dolomanov et al., 2009)'
_computing_publication_material  'Olex2 (Dolomanov et al., 2009)'
_computing_structure_refinement  'ShelXL (Sheldrick, 2008)'
_computing_structure_solution    'ShelXT (Sheldrick, 2015)'
_diffrn_ambient_temperature      153
_diffrn_measured_fraction_theta_full 0.998
_diffrn_measured_fraction_theta_max 0.869
_diffrn_measurement_device_type  'Bruker APEX-II CCD'
_diffrn_measurement_method       '\f and \w scans'
_diffrn_radiation_type           MoK\a
_diffrn_radiation_wavelength     0.71073
_diffrn_reflns_av_R_equivalents  0.0158
_diffrn_reflns_av_unetI/netI     0.0189
_diffrn_reflns_laue_measured_fraction_full 0.998
_diffrn_reflns_laue_measured_fraction_max 0.869
_diffrn_reflns_limit_h_max       8
_diffrn_reflns_limit_h_min       -8
_diffrn_reflns_limit_k_max       16
_diffrn_reflns_limit_k_min       -17
_diffrn_reflns_limit_l_max       10
_diffrn_reflns_limit_l_min       -17
_diffrn_reflns_number            8389
_diffrn_reflns_point_group_measured_fraction_full 0.998
_diffrn_reflns_point_group_measured_fraction_max 0.869
_diffrn_reflns_theta_full        26.000
_diffrn_reflns_theta_max         29.529
_diffrn_reflns_theta_min         2.305
_diffrn_standards_number         0
_exptl_absorpt_coefficient_mu    0.490
_exptl_absorpt_correction_T_max  0.7459
_exptl_absorpt_correction_T_min  0.7001
_exptl_absorpt_correction_type   multi-scan
_exptl_absorpt_process_details
;
SADABS-2012/1 (Bruker,2012) was used for absorption correction.
wR2(int) was 0.0611 before and 0.0288 after correction.
The Ratio of minimum to maximum transmission is 0.9386.
The \l/2 correction factor is 0.0015.
;
_exptl_crystal_colour            'clear yellow'
_exptl_crystal_colour_lustre     clear
_exptl_crystal_colour_primary    yellow
_exptl_crystal_density_diffrn    1.577
_exptl_crystal_description       block
_exptl_crystal_F_000             504
_exptl_crystal_size_max          0.338
_exptl_crystal_size_mid          0.236
_exptl_crystal_size_min          0.194
_refine_diff_density_max         1.102
_refine_diff_density_min         -0.403
_refine_diff_density_rms         0.071
_refine_ls_extinction_method     none
_refine_ls_goodness_of_fit_ref   1.061
_refine_ls_hydrogen_treatment    constr
_refine_ls_matrix_type           full
_refine_ls_number_parameters     144
_refine_ls_number_reflns         2607
_refine_ls_number_restraints     0
_refine_ls_restrained_S_all      1.061
_refine_ls_R_factor_all          0.0406
_refine_ls_R_factor_gt           0.0369
_refine_ls_shift/su_max          0.000
_refine_ls_shift/su_mean         0.000
_refine_ls_structure_factor_coef Fsqd
_refine_ls_weighting_details
'w=1/[\s^2^(Fo^2^)+(0.0582P)^2^+0.7676P] where P=(Fo^2^+2Fc^2^)/3'
_refine_ls_weighting_scheme      calc
_refine_ls_wR_factor_gt          0.1027
_refine_ls_wR_factor_ref         0.1055
_reflns_Friedel_coverage         0.000
_reflns_number_gt                2345
_reflns_number_total             2607
_reflns_threshold_expression     'I > 2\s(I)'
_iucr_refine_instructions_details
;

    jjw0362.res created by SHELXL-2014/7

TITL jjw0362_a.res in P2(1)/m
REM Old TITL jjw0362 in P21/m #11
REM SHELXT solution in P2(1)/m
REM R1 0.104, Rweak 0.006, Alpha 0.021, Orientation as input
REM Formula found by SHELXT: C15 N4 O3 F3 P S3
CELL 0.71073 6.5855 12.5308 12.4698 90 91.568 90
ZERR 2 0.0004 0.0006 0.0007 0 0.002 0
LATT 1
SYMM -X,0.5+Y,-Z
SFAC C H F N O P S
UNIT 30 40 6 8 6 2 6
 
L.S. 10
PLAN  20
SIZE 0.194 0.236 0.338
TEMP -120.15
BOND $H
LIST 6
MORE -1
CONF
fmap 2
acta 52
OMIT 0 0 1
REM <olex2.extras>
REM <HklSrc "%.\\jjw0362.hkl">
REM </olex2.extras>
 
WGHT    0.058200    0.767600
FVAR       1.02797
P1    6    0.486968    0.250000    0.453439    10.50000    0.01702    0.01533 =
         0.01519    0.00000    0.00177    0.00000
S1    7    0.772757    0.250000    0.422655    10.50000    0.01900    0.02334 =
         0.02434    0.00000    0.00621    0.00000
S3    7   -0.091079    0.250000    0.862469    10.50000    0.02210    0.03292 =
         0.01772    0.00000   -0.00239    0.00000
S2    7    0.273849    0.250000    0.344140    10.50000    0.02377    0.02629 =
         0.01678    0.00000   -0.00246    0.00000
F2    3    0.169563    0.250000    1.025385    10.50000    0.04054    0.06726 =
         0.02747    0.00000   -0.01023    0.00000
N1    4    0.438694    0.355390    0.546078    11.00000    0.01691    0.01542 =
         0.01771   -0.00104    0.00038    0.00131
F1    3    0.267936    0.335560    0.890838    11.00000    0.05078    0.07678 =
         0.08468    0.04372   -0.02411   -0.03504
N2    4    0.313295    0.554463    0.800788    11.00000    0.02715    0.01914 =
         0.01787   -0.00074    0.00256    0.00094
O1    5   -0.066924    0.250000    0.749460    10.50000    0.03815    0.07486 =
         0.02069    0.00000   -0.00407    0.00000
O2    5   -0.174669    0.346207    0.905310    11.00000    0.05165    0.07322 =
         0.05391   -0.02610   -0.01838    0.03135
C3    1    0.354240    0.494073    0.716678    11.00000    0.02432    0.01393 =
         0.01764    0.00250    0.00251    0.00010
C1    1    0.588624    0.387680    0.616674    11.00000    0.01704    0.02282 =
         0.02280   -0.00232   -0.00042    0.00048
AFIX  43
H1    2    0.722663    0.361682    0.607921    11.00000   -1.20000
AFIX   0
C5    1    0.246953    0.393379    0.559716    11.00000    0.01734    0.02295 =
         0.02385   -0.00233   -0.00215    0.00197
AFIX  43
H5    2    0.141491    0.371629    0.511005    11.00000   -1.20000
AFIX   0
C2    1    0.553106    0.455422    0.698701    11.00000    0.02164    0.02304 =
         0.02144   -0.00288   -0.00233   -0.00185
AFIX  43
H2    2    0.662582    0.477340    0.744766    11.00000   -1.20000
AFIX   0
C4    1    0.201887    0.461052    0.640357    11.00000    0.01903    0.02434 =
         0.02585   -0.00253    0.00036    0.00367
AFIX  43
H4    2    0.066971    0.486841    0.646119    11.00000   -1.20000
AFIX   0
 
C8    1    0.168102    0.250000    0.917820    10.50000    0.02546    0.02636 =
         0.02465    0.00000   -0.00273    0.00000
C6    1    0.474952    0.587236    0.876815    11.00000    0.03672    0.03195 =
         0.01879   -0.00504    0.00097   -0.00348
AFIX 137
H6A   2    0.548532    0.524027    0.903037    11.00000   -1.50000
H6B   2    0.415300    0.624555    0.937420    11.00000   -1.50000
H6C   2    0.569178    0.635052    0.840852    11.00000   -1.50000
AFIX   0
C7    1    0.105628    0.587311    0.822661    11.00000    0.03287    0.03719 =
         0.02732   -0.00775    0.00515    0.01053
AFIX 137
H7A   2    0.051905    0.630433    0.762772    11.00000   -1.50000
H7B   2    0.105253    0.629624    0.888749    11.00000   -1.50000
H7C   2    0.020429    0.523909    0.831133    11.00000   -1.50000
AFIX   0
HKLF 4
 
REM  jjw0362_a.res in P2(1)/m
REM R1 =  0.0369 for    2345 Fo > 4sig(Fo)  and  0.0406 for all    2607 data
REM    144 parameters refined using      0 restraints
 
END  
     
WGHT      0.0582      0.7685 

REM Highest difference peak  1.102,  deepest hole -0.403,  1-sigma level  0.071
Q1    1   0.3168  0.2500  0.8304  10.50000  0.05    1.10
Q2    1  -0.1896  0.2500  0.9536  10.50000  0.05    0.79
Q3    1   0.2327  0.1863  0.9790  11.00000  0.05    0.60
Q4    1  -0.0876  0.1670  0.7869  11.00000  0.05    0.56
Q5    1  -0.0854  0.3697  0.8339  11.00000  0.05    0.53
Q6    1   0.0498  0.2500  0.8880  10.50000  0.05    0.45
Q7    1   0.3860  0.2500  0.4030  10.50000  0.05    0.39
Q8    1   0.5683  0.4292  0.6562  11.00000  0.05    0.36
Q9    1   0.6258  0.2500  0.4385  10.50000  0.05    0.36
Q10   1   0.2832  0.4840  0.6756  11.00000  0.05    0.34
Q11   1   0.4585  0.4812  0.7033  11.00000  0.05    0.32
Q12   1   0.2173  0.5624  0.8146  11.00000  0.05    0.30
Q13   1   0.3510  0.3825  0.5450  11.00000  0.05    0.30
Q14   1   0.2324  0.4290  0.5985  11.00000  0.05    0.30
Q15   1   0.4469  0.3119  0.5174  11.00000  0.05    0.27
Q16   1   0.3201  0.5254  0.7568  11.00000  0.05    0.26
Q17   1   0.5941  0.4717  0.7060  11.00000  0.05    0.25
Q18   1   0.3795  0.5566  0.8396  11.00000  0.05    0.24
Q19   1   0.5152  0.3762  0.5737  11.00000  0.05    0.22
Q20   1   0.3145  0.5767  0.7824  11.00000  0.05    0.22

REM The information below was added by Olex2.
REM
REM R1 = 0.0369 for 2345 Fo > 4sig(Fo) and 0.0406 for all 8406 data
REM n/a parameters refined using n/a restraints
REM Highest difference peak 1.10, deepest hole -0.40
REM Mean Shift 0, Max Shift 0.000.

REM +++ Tabular Listing of Refinement Information +++
REM R1_all = 0.0406
REM R1_gt = 0.0369
REM wR_ref = 0.1055
REM GOOF = 1.061
REM Shift_max = 0.000
REM Shift_mean = 0
REM Reflections_all = 8406
REM Reflections_gt = 2345
REM Parameters = n/a
REM Hole = -0.40
REM Peak = 1.10
REM Flack = n/a

;
_cod_data_source_file            c5cc08182c3.cif
_cod_data_source_block
;
;
_cod_database_code               7118621
_shelx_space_group_comment
;
The symmetry employed for this shelxl refinement is uniquely defined
by the following loop, which should always be used as a source of
symmetry information in preference to the above space-group names.
They are only intended as comments.
;
_shelx_estimated_absorpt_t_max   0.911
_shelx_estimated_absorpt_t_min   0.852
_olex2_refinement_description
;
1. Fixed Uiso
 At 1.2 times of:
  All C(H) groups
 At 1.5 times of:
  All C(H,H,H) groups
2.a Aromatic/amide H refined with riding coordinates:
 C1(H1), C5(H5), C2(H2), C4(H4)
2.b Idealised Me refined as rotating group:
 C6(H6A,H6B,H6C), C7(H7A,H7B,H7C)
;
_shelx_shelxl_version_number     2014/7
_olex2_submission_special_instructions 'No special instructions were received'
loop_
_space_group_symop_operation_xyz
'x, y, z'
'-x, y+1/2, -z'
'-x, -y, -z'
'x, -y-1/2, z'
loop_
_atom_site_label
_atom_site_type_symbol
_atom_site_fract_x
_atom_site_fract_y
_atom_site_fract_z
_atom_site_U_iso_or_equiv
_atom_site_adp_type
_atom_site_occupancy
_atom_site_site_symmetry_order
_atom_site_calc_flag
_atom_site_refinement_flags_posn
_atom_site_refinement_flags_adp
_atom_site_refinement_flags_occupancy
P1 P 0.48697(9) 0.2500 0.45344(5) 0.01582(15) Uani 1 2 d S T P
S1 S 0.77276(9) 0.2500 0.42265(5) 0.02213(16) Uani 1 2 d S T P
S3 S -0.09108(10) 0.2500 0.86247(5) 0.02430(16) Uani 1 2 d S T P
S2 S 0.27385(10) 0.2500 0.34414(5) 0.02233(16) Uani 1 2 d S T P
F2 F 0.1696(3) 0.2500 1.02539(14) 0.0453(5) Uani 1 2 d S T P
N1 N 0.4387(2) 0.35539(11) 0.54608(11) 0.0167(3) Uani 1 1 d . . .
F1 F 0.2679(3) 0.33556(15) 0.89084(16) 0.0712(6) Uani 1 1 d . . .
N2 N 0.3133(2) 0.55446(12) 0.80079(11) 0.0213(3) Uani 1 1 d . . .
O1 O -0.0669(4) 0.2500 0.74946(16) 0.0447(6) Uani 1 2 d S T P
O2 O -0.1747(3) 0.34621(18) 0.90531(15) 0.0600(6) Uani 1 1 d . . .
C3 C 0.3542(3) 0.49407(13) 0.71668(13) 0.0186(3) Uani 1 1 d . . .
C1 C 0.5886(3) 0.38768(15) 0.61667(14) 0.0209(3) Uani 1 1 d . . .
H1 H 0.7227 0.3617 0.6079 0.025 Uiso 1 1 calc R . .
C5 C 0.2470(3) 0.39338(14) 0.55972(14) 0.0214(4) Uani 1 1 d . . .
H5 H 0.1415 0.3716 0.5110 0.026 Uiso 1 1 calc R . .
C2 C 0.5531(3) 0.45542(14) 0.69870(14) 0.0221(4) Uani 1 1 d . . .
H2 H 0.6626 0.4773 0.7448 0.027 Uiso 1 1 calc R . .
C4 C 0.2019(3) 0.46105(15) 0.64036(14) 0.0231(4) Uani 1 1 d . . .
H4 H 0.0670 0.4868 0.6461 0.028 Uiso 1 1 calc R . .
C8 C 0.1681(4) 0.2500 0.9178(2) 0.0255(5) Uani 1 2 d S T P
C6 C 0.4750(3) 0.58724(17) 0.87681(14) 0.0292(4) Uani 1 1 d . . .
H6A H 0.5485 0.5240 0.9030 0.044 Uiso 1 1 calc GR . .
H6B H 0.4153 0.6246 0.9374 0.044 Uiso 1 1 calc GR . .
H6C H 0.5692 0.6351 0.8409 0.044 Uiso 1 1 calc GR . .
C7 C 0.1056(3) 0.58731(18) 0.82266(16) 0.0324(4) Uani 1 1 d . . .
H7A H 0.0519 0.6304 0.7628 0.049 Uiso 1 1 calc GR . .
H7B H 0.1053 0.6296 0.8887 0.049 Uiso 1 1 calc GR . .
H7C H 0.0204 0.5239 0.8311 0.049 Uiso 1 1 calc GR . .
loop_
_atom_site_aniso_label
_atom_site_aniso_U_11
_atom_site_aniso_U_22
_atom_site_aniso_U_33
_atom_site_aniso_U_23
_atom_site_aniso_U_13
_atom_site_aniso_U_12
P1 0.0170(3) 0.0153(3) 0.0152(3) 0.000 0.0018(2) 0.000
S1 0.0190(3) 0.0233(3) 0.0243(3) 0.000 0.0062(2) 0.000
S3 0.0221(3) 0.0329(4) 0.0177(3) 0.000 -0.0024(2) 0.000
S2 0.0238(3) 0.0263(3) 0.0168(3) 0.000 -0.0025(2) 0.000
F2 0.0405(10) 0.0673(13) 0.0275(9) 0.000 -0.0102(8) 0.000
N1 0.0169(7) 0.0154(6) 0.0177(6) -0.0010(5) 0.0004(5) 0.0013(5)
F1 0.0508(9) 0.0768(12) 0.0847(12) 0.0437(10) -0.0241(8) -0.0350(9)
N2 0.0271(8) 0.0191(7) 0.0179(6) -0.0007(6) 0.0026(6) 0.0009(6)
O1 0.0381(12) 0.0749(18) 0.0207(9) 0.000 -0.0041(9) 0.000
O2 0.0516(11) 0.0732(14) 0.0539(11) -0.0261(10) -0.0184(8) 0.0313(10)
C3 0.0243(8) 0.0139(7) 0.0176(7) 0.0025(6) 0.0025(6) 0.0001(6)
C1 0.0170(8) 0.0228(8) 0.0228(8) -0.0023(7) -0.0004(6) 0.0005(6)
C5 0.0173(8) 0.0230(8) 0.0239(8) -0.0023(7) -0.0021(6) 0.0020(6)
C2 0.0216(8) 0.0230(8) 0.0214(8) -0.0029(7) -0.0023(6) -0.0019(7)
C4 0.0190(8) 0.0243(9) 0.0259(8) -0.0025(7) 0.0004(7) 0.0037(7)
C8 0.0255(13) 0.0264(13) 0.0246(12) 0.000 -0.0027(10) 0.000
C6 0.0367(11) 0.0320(10) 0.0188(8) -0.0050(8) 0.0010(7) -0.0035(8)
C7 0.0329(11) 0.0372(11) 0.0273(9) -0.0077(9) 0.0051(8) 0.0105(9)
loop_
_atom_type_symbol
_atom_type_description
_atom_type_scat_dispersion_real
_atom_type_scat_dispersion_imag
_atom_type_scat_source
C C 0.0033 0.0016 'International Tables Vol C Tables 4.2.6.8 and 6.1.1.4'
H H 0.0000 0.0000 'International Tables Vol C Tables 4.2.6.8 and 6.1.1.4'
F F 0.0171 0.0103 'International Tables Vol C Tables 4.2.6.8 and 6.1.1.4'
N N 0.0061 0.0033 'International Tables Vol C Tables 4.2.6.8 and 6.1.1.4'
O O 0.0106 0.0060 'International Tables Vol C Tables 4.2.6.8 and 6.1.1.4'
P P 0.1023 0.0942 'International Tables Vol C Tables 4.2.6.8 and 6.1.1.4'
S S 0.1246 0.1234 'International Tables Vol C Tables 4.2.6.8 and 6.1.1.4'
loop_
_geom_angle_atom_site_label_1
_geom_angle_atom_site_label_2
_geom_angle_atom_site_label_3
_geom_angle
_geom_angle_site_symmetry_1
_geom_angle_site_symmetry_3
S2 P1 S1 123.62(4) . .
N1 P1 S1 108.65(5) 4_565 .
N1 P1 S1 108.65(5) . .
N1 P1 S2 108.51(5) 4_565 .
N1 P1 S2 108.51(5) . .
N1 P1 N1 95.17(9) . 4_565
O1 S3 O2 115.05(10) . .
O1 S3 O2 115.05(10) . 4_565
O1 S3 C8 104.25(14) . .
O2 S3 O2 114.4(2) 4_565 .
O2 S3 C8 102.93(9) . .
O2 S3 C8 102.93(9) 4_565 .
C1 N1 P1 119.79(12) . .
C5 N1 P1 121.30(12) . .
C5 N1 C1 118.12(14) . .
C3 N2 C6 120.77(15) . .
C3 N2 C7 121.31(15) . .
C7 N2 C6 117.88(15) . .
N2 C3 C2 121.84(16) . .
N2 C3 C4 122.60(16) . .
C2 C3 C4 115.53(15) . .
N1 C1 H1 118.8 . .
C2 C1 N1 122.38(16) . .
C2 C1 H1 118.8 . .
N1 C5 H5 118.9 . .
C4 C5 N1 122.23(16) . .
C4 C5 H5 118.9 . .
C3 C2 H2 119.6 . .
C1 C2 C3 120.80(16) . .
C1 C2 H2 119.6 . .
C3 C4 H4 119.6 . .
C5 C4 C3 120.86(16) . .
C5 C4 H4 119.6 . .
F2 C8 S3 111.08(19) . .
F1 C8 S3 112.02(14) 4_565 .
F1 C8 S3 112.02(14) . .
F1 C8 F2 105.53(17) 4_565 .
F1 C8 F2 105.53(17) . .
F1 C8 F1 110.3(3) 4_565 .
N2 C6 H6A 109.5 . .
N2 C6 H6B 109.5 . .
N2 C6 H6C 109.5 . .
H6A C6 H6B 109.5 . .
H6A C6 H6C 109.5 . .
H6B C6 H6C 109.5 . .
N2 C7 H7A 109.5 . .
N2 C7 H7B 109.5 . .
N2 C7 H7C 109.5 . .
H7A C7 H7B 109.5 . .
H7A C7 H7C 109.5 . .
H7B C7 H7C 109.5 . .
loop_
_geom_bond_atom_site_label_1
_geom_bond_atom_site_label_2
_geom_bond_distance
_geom_bond_site_symmetry_2
P1 S1 1.9311(9) .
P1 S2 1.9294(8) .
P1 N1 1.7888(14) 4_565
P1 N1 1.7888(14) .
S3 O1 1.422(2) .
S3 O2 1.4345(19) 4_565
S3 O2 1.4345(19) .
S3 C8 1.824(3) .
F2 C8 1.341(3) .
N1 C1 1.366(2) .
N1 C5 1.364(2) .
F1 C8 1.307(2) .
N2 C3 1.327(2) .
N2 C6 1.465(2) .
N2 C7 1.461(2) .
C3 C2 1.420(2) .
C3 C4 1.425(2) .
C1 H1 0.9500 .
C1 C2 1.354(2) .
C5 H5 0.9500 .
C5 C4 1.355(2) .
C2 H2 0.9500 .
C4 H4 0.9500 .
C8 F1 1.306(2) 4_565
C6 H6A 0.9800 .
C6 H6B 0.9800 .
C6 H6C 0.9800 .
C7 H7A 0.9800 .
C7 H7B 0.9800 .
C7 H7C 0.9800 .
loop_
_geom_torsion_atom_site_label_1
_geom_torsion_atom_site_label_2
_geom_torsion_atom_site_label_3
_geom_torsion_atom_site_label_4
_geom_torsion
_geom_torsion_site_symmetry_1
_geom_torsion_site_symmetry_4
P1 N1 C1 C2 -169.98(14) . .
P1 N1 C5 C4 169.63(14) . .
S1 P1 N1 C1 -28.60(14) . .
S1 P1 N1 C5 161.77(12) . .
S2 P1 N1 C1 -165.42(12) . .
S2 P1 N1 C5 24.95(14) . .
N1 P1 N1 C1 83.08(14) 4_565 .
N1 P1 N1 C5 -86.55(14) 4_565 .
N1 C1 C2 C3 1.7(3) . .
N1 C5 C4 C3 -1.3(3) . .
N2 C3 C2 C1 175.21(17) . .
N2 C3 C4 C5 -175.38(17) . .
O1 S3 C8 F2 180.000(1) . .
O1 S3 C8 F1 62.27(18) . .
O1 S3 C8 F1 -62.27(18) . 4_565
O2 S3 C8 F2 59.57(10) . .
O2 S3 C8 F2 -59.57(10) 4_565 .
O2 S3 C8 F1 177.30(19) . 4_565
O2 S3 C8 F1 58.2(2) 4_565 4_565
O2 S3 C8 F1 -58.2(2) . .
O2 S3 C8 F1 -177.30(19) 4_565 .
C1 N1 C5 C4 -0.2(3) . .
C5 N1 C1 C2 0.0(3) . .
C2 C3 C4 C5 2.8(3) . .
C4 C3 C2 C1 -3.0(3) . .
C6 N2 C3 C2 2.4(3) . .
C6 N2 C3 C4 -179.52(17) . .
C7 N2 C3 C2 -175.50(17) . .
C7 N2 C3 C4 2.6(3) . .
loop_
_refln_index_h
_refln_index_k
_refln_index_l
_refln_F_squared_meas
_refln_F_squared_sigma
-1 0 0 2346.07 28
-1 0 0 2321.27 25.8
1 0 0 2356.06 26.3
1 0 0 2347.07 28.1
1 0 0 2390.36 25.9
-2 0 0 2336.67 27.5
2 0 0 2297.57 28.5
2 0 0 2285.17 31
2 0 0 2278.37 27.3
-2 0 0 2325.57 30.7
3 0 0 2956.3 35.7
3 0 0 2980 41.6
-3 0 0 2890.01 35.8
-3 0 0 2956.3 40.6
3 0 0 2925.31 37.6
4 0 0 1145.79 18.5
-4 0 0 1170.48 22.8
-4 0 0 1112.09 18.6
4 0 0 1134.19 23.8
4 0 0 1141.09 20.5
-5 0 0 436.86 11.3
5 0 0 444.96 11.2
5 0 0 457.75 15.7
6 0 0 423.46 17
-6 0 0 403.66 11.7
-7 0 0 71.89 5.5
7 0 0 68.39 8.8
-8 0 0 -3.1 1.9
8 0 0 4.1 4
0 1 0 -6.6 0.3
-1 -1 0 71.49 2.5
1 -1 0 66.19 2.7
-1 -1 0 68.79 1.8
1 -1 0 66.39 2.3
-1 1 0 66.29 2.3
1 1 0 72.89 2.6
-1 1 0 72.79 2.8
1 1 0 70.09 2.5
1 1 0 68.49 1.7
-2 -1 0 2675.23 30.4
-2 -1 0 2608.54 32.3
2 -1 0 2666.13 31.7
2 -1 0 2662.63 35.1
-2 -1 0 2686.13 34.2
2 1 0 2625.74 32.3
-2 1 0 2627.34 31.7
2 1 0 2619.14 34.5
2 1 0 2684.83 30.1
-2 1 0 2672.53 34.7
3 -1 0 2930.21 37.1
3 -1 0 2956.9 36.5
-3 -1 0 2935.31 40.1
3 -1 0 2901.01 41.4
-3 -1 0 2888.31 34.9
-3 1 0 2926.81 36.4
3 1 0 2966.2 37.6
3 1 0 2877.01 40.9
-3 1 0 2896.21 40.4
3 1 0 2897.41 34.7
-4 -1 0 128.09 6.8
-4 -1 0 139.59 5.3
4 -1 0 119.79 7.2
4 -1 0 143.29 5.8
4 -1 0 129.59 6.2
4 1 0 127.49 6.3
4 1 0 129.19 7.3
-4 1 0 132.29 5.7
-4 1 0 131.19 7.1
4 1 0 133.49 5
5 -1 0 54.99 4.7
-5 -1 0 58.19 4
5 -1 0 54.79 6.8
-5 1 0 53.89 4.2
5 1 0 54.59 3.8
5 1 0 54.29 6.4
-6 -1 0 458.35 12.1
6 -1 0 461.35 17.9
-6 1 0 444.16 12.9
6 1 0 457.95 12
6 1 0 488.85 18
7 -1 0 139.09 11.3
-7 -1 0 134.29 7.1
7 1 0 133.99 10.8
-7 1 0 131.79 7.4
8 -1 0 353.46 18.7
-8 1 0 293.77 12
8 1 0 329.77 18.1
0 -2 0 5691.53 60.29
0 2 0 5782.12 60.09
-1 -2 0 2599.34 29.9
-1 -2 0 2628.74 30.4
1 -2 0 2602.94 30.2
1 -2 0 2614.64 31.6
1 2 0 2584.94 30.5
-1 2 0 2569.14 31.4
-1 2 0 2587.64 30.2
1 2 0 2613.34 29.9
-2 -2 0 815.22 13.9
2 -2 0 810.82 13.2
2 -2 0 808.12 15
-2 -2 0 802.62 11.1
-2 -2 0 774.42 13.3
2 2 0 804.82 13.4
-2 2 0 793.02 13.1
2 2 0 792.52 14.2
-2 2 0 803.62 14.7
2 2 0 812.02 11
-3 -2 0 1610.14 25.2
-3 -2 0 1582.84 20.8
-3 -2 0 1597.44 24.1
3 -2 0 1611.84 23.4
3 -2 0 1613.84 27.1
-3 2 0 1543.55 23.2
3 2 0 1578.64 26.2
-3 2 0 1586.34 26.2
3 2 0 1577.14 24
3 2 0 1566.54 20.5
4 -2 0 944.61 18
-4 -2 0 966.2 15.6
-4 -2 0 938.81 19.7
4 -2 0 964.3 17.8
4 -2 0 936.61 21.5
4 2 0 922.91 15
4 2 0 902.81 18.4
4 2 0 975.7 21.4
-4 2 0 943.11 20.6
-4 2 0 956.4 17.7
5 -2 0 416.66 15.3
5 -2 0 428.96 11.8
-5 -2 0 420.56 10.3
5 2 0 399.46 9.8
-5 2 0 438.46 12
5 2 0 406.26 15
6 -2 0 224.88 12.8
-6 -2 0 220.18 7.9
6 2 0 207.58 7.6
6 2 0 216.68 12.3
-6 2 0 220.78 9.3
-7 -2 0 51.59 5
7 -2 0 53.49 8.2
7 2 0 39.2 7
-7 2 0 63.09 6.3
8 -2 0 85.59 10.7
8 2 0 90.59 11.2
-8 2 0 91.19 8.3
0 -3 0 -5.6 0.8
0 -3 0 -7 0.7
0 3 0 -4 0.8
-1 -3 0 436.26 7.6
-1 -3 0 419.66 8
1 -3 0 438.36 8.4
-1 3 0 442.26 8.6
1 3 0 431.16 7.8
1 3 0 426.36 8
-2 -3 0 2237.28 29.4
2 -3 0 2241.18 31.3
-2 -3 0 2205.28 25.6
2 -3 0 2210.88 29.1
-2 -3 0 2202.98 28.9
2 3 0 2179.48 29.9
-2 3 0 2232.08 31
-2 3 0 2193.58 29
3 -3 0 345.77 9.2
-3 -3 0 333.47 9.4
3 -3 0 350.66 10.9
-3 -3 0 336.57 6.9
-3 -3 0 326.67 9.3
-3 3 0 326.07 9
3 3 0 332.07 9.2
-3 3 0 324.47 10.2
3 3 0 341.27 10.2
4 -3 0 20.2 3
4 -3 0 27.1 4.2
-4 -3 0 18.5 2.3
-4 -3 0 20.4 3.3
-4 -3 0 17.7 3.3
4 -3 0 23.8 3.4
-4 3 0 20.2 3.6
-4 3 0 18 3
4 3 0 20.1 3.6
4 3 0 21.7 2.3
4 3 0 19.8 3.3
-5 -3 0 147.99 5.8
5 -3 0 143.39 9.2
-5 3 0 144.49 7.2
5 3 0 143.79 5.5
5 3 0 139.39 8.9
6 -3 0 1202.48 30.4
-6 -3 0 1205.28 20.6
-6 3 0 1224.58 24.2
6 3 0 1198.58 29.8
6 3 0 1209.78 20.4
-7 -3 0 380.06 11.1
7 -3 0 412.36 18.5
7 3 0 390.36 17.9
-7 3 0 401.96 13.8
8 -3 0 328.97 18.2
-8 3 0 320.87 13.3
8 3 0 343.17 18.5
0 -4 0 3708.83 42.5
0 -4 0 3751.72 41.8
0 4 0 3736.03 41.6
1 -4 0 519.15 10.1
-1 -4 0 525.05 9.7
1 4 0 516.65 9.1
-1 4 0 499.25 10
1 4 0 512.25 9.5
2 -4 0 316.37 8.2
2 -4 0 295.27 8.6
-2 -4 0 310.37 7.6
-2 -4 0 296.97 8
-2 4 0 288.87 7.9
2 4 0 311.57 8
-2 4 0 284.67 8.5
2 4 0 292.17 7.8
-3 -4 0 2.1 1.2
-3 -4 0 1.9 1.4
3 -4 0 0.4 0.9
3 -4 0 4.5 1.8
-3 -4 0 1.3 0.8
3 4 0 0.7 1.4
3 4 0 0.5 1.1
-3 4 0 1.5 1.4
-3 4 0 2.9 1.4
4 -4 0 256.57 9
-4 -4 0 279.57 9.8
-4 -4 0 250.67 6.6
-4 -4 0 262.37 9.6
4 -4 0 253.67 10.8
-4 4 0 237.48 10.1
4 4 0 254.77 10.3
-4 4 0 245.38 8.9
-5 -4 0 527.95 11
5 -4 0 501.85 17.3
-5 -4 0 486.05 14.7
-5 4 0 517.35 14.2
5 4 0 536.15 17.2
6 -4 0 49.9 7.5
-6 -4 0 73.69 4.4
-6 4 0 56.79 6
6 4 0 52.89 7.6
7 -4 0 597.94 23
7 4 0 650.53 23.2
-7 4 0 619.74 18.1
8 -4 0 16 5.9
8 4 0 18.2 6.2
-8 4 0 36.3 6
0 -5 0 -4 0.9
0 -5 0 -5.6 0.9
0 5 0 -4.8 0.8
-1 -5 0 259.47 6.9
1 -5 0 275.97 7.4
1 -5 0 259.87 6.4
-1 5 0 287.37 7.4
1 5 0 278.07 7
1 5 0 255.37 6.2
2 -5 0 264.57 8
-2 -5 0 257.77 7.8
-2 -5 0 255.07 7.1
2 5 0 267.87 7.8
-2 5 0 262.27 8
-2 5 0 276.17 8.5
2 5 0 265.87 7.6
-3 -5 0 530.85 12.3
-3 -5 0 517.45 12.8
3 -5 0 526.55 12.8
-3 -5 0 519.65 9.3
3 -5 0 517.45 14.1
3 5 0 542.85 12.9
-3 5 0 525.75 12.8
3 5 0 513.45 13.2
-3 5 0 520.85 13.8
-4 -5 0 365.46 11.3
4 -5 0 348.87 12.9
-4 -5 0 325.27 11.2
-4 -5 0 345.07 7.9
-4 5 0 336.47 12.2
-4 5 0 347.27 11.1
4 5 0 344.27 12.2
-5 -5 0 735.43 13.4
-5 -5 0 737.83 18.8
5 -5 0 712.13 21.2
5 5 0 728.73 20.4
-5 5 0 759.32 18.2
-6 -5 0 6.8 1.9
6 -5 0 17.7 5.2
6 5 0 5.5 3.4
-6 5 0 5.5 2.6
7 -5 0 172.68 12.6
7 5 0 186.28 12.8
-7 5 0 163.98 9.7
-8 5 0 312.07 14
8 5 0 325.17 19
0 -6 0 6278.67 71.39
0 -6 0 6357.96 70.09
0 6 0 6380.36 69.89
-1 -6 0 119.69 4.9
1 -6 0 109.29 5
1 -6 0 119.79 4.5
-1 6 0 116.59 5
1 6 0 120.59 4.8
1 6 0 125.59 4.4
2 -6 0 72.99 4.5
-2 -6 0 66.29 3.6
-2 -6 0 67.59 4.3
-2 6 0 71.09 4.6
2 6 0 64.09 3.9
2 6 0 72.99 4.2
-2 6 0 74.19 4.6
-3 -6 0 860.41 13.5
3 -6 0 888.11 19.4
-3 -6 0 883.21 16.9
-3 -6 0 822.02 17.4
3 6 0 832.52 17.3
3 6 0 861.61 17.9
-3 6 0 856.31 18
-3 6 0 860.81 18.9
-4 -6 0 492.85 15
-4 -6 0 481.25 9.7
4 -6 0 475.25 15.4
-4 -6 0 477.95 14.1
-4 6 0 480.95 13.9
4 6 0 483.55 14.6
-5 -6 0 751.92 13.4
-5 -6 0 761.22 19.4
5 -6 0 703.03 21.2
-5 6 0 705.63 18.4
5 6 0 738.43 20.6
-6 -6 0 149.69 5.8
6 -6 0 142.19 10.6
6 6 0 161.48 10.8
-6 6 0 155.68 9.1
7 -6 0 132.59 13.5
-7 6 0 142.29 9.4
7 6 0 136.69 11.1
0 -7 0 -0.7 1
0 -7 0 -0.9 1
0 7 0 -1.2 0.9
1 -7 0 41.6 3
1 -7 0 37.2 3.6
-1 -7 0 42.7 3.8
1 7 0 40.3 3.1
-1 7 0 37 3.6
1 7 0 38.2 2.7
2 -7 0 431.66 10.2
-2 -7 0 432.26 11.3
2 -7 0 436.26 11.8
2 7 0 435.26 11
2 7 0 418.06 10.4
-2 7 0 436.36 11.8
-3 -7 0 491.85 13.3
-3 -7 0 502.55 12.2
-3 7 0 513.85 13.8
-3 7 0 489.75 14
3 7 0 503.55 13.3
-4 -7 0 16.5 3.7
-4 -7 0 16.3 2.2
4 7 0 16.4 3.5
-4 7 0 9.2 3
-5 -7 0 11.9 3.3
-5 -7 0 16.1 2.2
-5 7 0 13.7 3.3
5 7 0 8.6 3.4
-6 -7 0 317.97 13.6
6 7 0 328.67 15.1
-6 7 0 304.07 12.9
7 7 0 275.17 15.4
0 -8 0 6268.17 72.99
0 -8 0 6448.25 74.59
0 8 0 6486.65 72.69
-1 -8 0 1.2 1.2
1 -8 0 -0.6 0.8
1 -8 0 -0.5 1.1
-1 -8 0 -0.6 1.2
-1 8 0 2.2 1.3
1 8 0 0.2 1.1
1 8 0 -0.2 0.9
2 -8 0 5.7 1.7
-2 -8 0 2.6 1.6
2 8 0 3.6 1.5
-2 8 0 2.4 1.7
2 8 0 3 1.5
-3 -8 0 449.95 13.1
3 8 0 425.16 12.3
-3 8 0 422.66 13.3
-4 -8 0 111.99 4.7
-4 -8 0 114.99 7.6
4 8 0 118.39 7.5
-5 -8 0 22.9 4.5
5 8 0 24.6 4.8
-6 -8 0 151.38 9.8
6 8 0 150.28 10.5
7 8 0 104.59 11.1
0 -9 0 4.3 1.7
0 -9 0 1 1.5
0 9 0 0.2 1.2
-1 -9 0 63.99 4.3
-1 -9 0 59.39 4.4
1 -9 0 55.49 3.9
1 9 0 59.49 3.8
1 9 0 60.69 4.2
-1 9 0 67.39 4.6
-2 -9 0 274.57 8.2
2 -9 0 297.47 8.9
-2 -9 0 276.07 9.7
-2 9 0 290.87 10.1
2 9 0 277.67 8.8
-3 -9 0 2.7 2.2
3 -9 0 1.8 1.6
-3 9 0 3.4 2.3
3 9 0 1.3 1.7
-4 -9 0 154.48 8.9
-4 -9 0 171.88 6
4 9 0 182.48 9.2
-5 -9 0 2.3 2.9
5 9 0 6.1 3
-6 -9 0 170.08 10.8
6 9 0 195.18 12
7 9 0 123.59 12.4
0 -10 0 4732.53 58.49
-1 -10 0 -0.1 1.5
-1 -10 0 3 1.8
1 -10 0 3.4 1.5
1 10 0 0.7 1.5
1 10 0 1.3 1.4
-1 10 0 2 1.8
-2 -10 0 112.89 6.6
-2 -10 0 114.79 5.7
2 -10 0 106.29 5.6
2 10 0 105.99 5.6
-2 10 0 114.69 6.8
-3 -10 0 601.64 16.4
3 -10 0 592.64 14.6
-3 -10 0 592.54 12.9
-3 10 0 622.14 17.3
3 10 0 602.84 15.5
-4 -10 0 552.04 11.8
-4 -10 0 518.95 16.5
4 10 0 532.25 16.2
-5 -10 0 111.39 8.6
5 10 0 117.69 8.8
-6 -10 0 14.6 4.4
6 10 0 11.6 4.3
7 10 0 2.3 3.7
-1 -11 0 72.69 5.5
1 -11 0 84.19 5.3
-1 11 0 82.49 5.6
1 11 0 81.09 4.8
-2 -11 0 425.96 11.6
-2 -11 0 420.06 13.1
2 -11 0 402.66 11.6
-2 11 0 418.06 13.2
2 11 0 409.26 11.5
-3 -11 0 8.1 3.1
3 -11 0 10.2 2.8
3 11 0 12.3 3
4 -11 0 75.89 5.8
-4 -11 0 71.29 4.6
-4 -11 0 80.19 8.3
4 11 0 62.89 6.7
-5 -11 0 7.3 3.5
5 11 0 9.9 4
-6 -11 0 238.08 13
6 11 0 268.57 14.1
7 11 0 24 6.3
0 -12 0 1846.72 30.4
0 12 0 1886.31 28.1
1 -12 0 4.9 2
-1 -12 0 5.3 2.6
-1 12 0 4.6 2.3
1 12 0 4.4 2
2 -12 0 23.8 3.6
-2 -12 0 25.3 4.3
2 12 0 29.9 4
3 -12 0 101.29 6.3
-3 -12 0 105.09 7.7
3 12 0 98.19 6.6
-4 -12 0 155.18 9.8
4 -12 0 175.38 8.6
4 12 0 142.19 8.9
5 -12 0 326.97 12.7
-5 -12 0 379.86 15.6
5 12 0 352.36 15
0 -13 0 10.5 2.7
-1 -13 0 44 5.4
1 -13 0 37.9 4.5
1 13 0 39.7 4.1
-2 -13 0 219.98 10.3
2 -13 0 244.58 9.6
2 13 0 219.78 8.7
-3 -13 0 168.98 9.8
3 -13 0 177.48 8.5
3 13 0 171.28 8.7
4 -13 0 50.49 5.8
-4 -13 0 59.99 7.3
-5 -13 0 14.8 4.9
0 -14 0 1192.68 24.2
-1 -14 0 0.8 2.2
1 -14 0 0.8 1.9
-2 -14 0 85.39 7.9
2 -14 0 87.19 6.3
-3 -14 0 152.18 9.8
-4 -14 0 298.97 14.1
0 -15 0 1.9 2.5
-1 -15 0 16.3 4.1
-2 -15 0 39.9 6.1
-3 -15 0 92.49 9.1
-4 -15 0 0.9 3.2
-3 -16 0 2.6 3.6
8 0 -1 2.6 3.5
7 0 -1 2.1 2.7
-7 0 1 0.7 1.7
6 0 -1 1.9 1.6
-6 0 1 1 1.5
6 0 -1 8.5 3.5
-5 0 1 0.7 1.1
5 0 -1 0.6 1.7
5 0 -1 0.8 1.3
4 0 -1 2288.37 37.1
-4 0 1 2236.88 30
-4 0 1 2243.18 35.3
4 0 -1 2273.17 33.2
4 0 -1 2300.97 30.1
3 0 -1 1691.63 24.3
3 0 -1 1666.13 22
3 0 -1 1614.54 26.8
-3 0 1 1640.54 21.8
-3 0 1 1643.24 26.1
-2 0 1 70.69 2.5
-2 0 1 75.89 3.6
2 0 -1 67.09 2.6
1 0 -1 1932.91 21.3
-1 0 1 1955.5 23.5
1 0 -1 1937.41 23.6
0 0 -1 -0.3 0.1
0 0 -1 -0.1 0.1
-2 0 -1 602.44 12.1
2 0 1 604.04 10.2
-2 0 -1 594.74 10.3
-2 0 -1 602.34 10.6
2 0 1 604.14 10.6
2 0 1 594.44 12.4
3 0 1 1507.55 26
-3 0 -1 1529.95 25.4
3 0 1 1554.04 22.8
-3 0 -1 1528.45 22
3 0 1 1529.55 21.8
-4 0 -1 1469.95 27
4 0 1 1493.35 22.8
4 0 1 1428.06 28
4 0 1 1496.25 24.4
-4 0 -1 1449.65 23
5 0 1 679.33 14.6
-5 0 -1 679.13 15.1
5 0 1 651.13 19.5
6 0 1 655.93 21.4
-6 0 -1 604.54 15.4
7 0 1 133.09 13.1
-7 0 -1 110.59 7
-8 0 -1 335.17 12.8
8 0 1 317.27 17.9
8 -1 -1 12 5.1
8 1 -1 23 6.4
-8 1 1 14.9 3.6
7 -1 -1 42.1 7.5
-7 -1 1 29.1 3.7
-7 1 1 31.5 4.4
7 1 -1 35.7 6.7
6 -1 -1 128.39 9.7
-6 -1 1 146.39 6.4
-6 1 1 132.89 6.7
6 1 -1 152.58 10.3
6 1 -1 143.39 6.3
5 -1 -1 33.4 3.6
5 -1 -1 27.8 4.8
-5 -1 1 26.9 3
5 1 -1 28.1 3
5 1 -1 27.7 4.6
-5 1 1 23.4 3
-4 -1 1 824.72 18.1
4 -1 -1 814.72 15.1
-4 -1 1 815.42 13.7
4 -1 -1 818.52 19.4
4 -1 -1 813.92 16.5
4 1 -1 815.52 19.1
-4 1 1 799.02 14.8
4 1 -1 801.52 13.5
4 1 -1 796.22 16.6
3 -1 -1 1815.02 24.6
-3 -1 1 1820.32 22.9
-3 -1 1 1891.61 28.1
3 -1 -1 1874.61 29.3
-3 1 1 1792.32 28
3 1 -1 1833.12 22.8
3 1 -1 1836.82 26.4
3 1 -1 1804.02 28.7
-3 1 1 1790.92 24.4
-2 -1 1 125.99 3
-2 -1 1 119.59 4.5
2 -1 -1 109.69 4.6
2 -1 -1 115.79 3.7
2 1 -1 120.39 2.9
-2 1 1 110.79 3.6
2 1 -1 123.29 4.4
2 1 -1 105.49 4.5
-2 1 1 106.59 4.5
1 -1 -1 892.01 12.6
1 -1 -1 889.11 11.7
-1 -1 1 908.31 12.7
-1 1 1 891.81 12.5
1 1 -1 873.51 12.7
1 1 -1 885.71 11.9
0 -1 1 751.62 9.3
0 1 1 757.82 9.7
-1 -1 -1 1206.28 15.4
1 -1 1 1176.28 15.5
-1 -1 -1 1191.08 15.9
-1 -1 -1 1167.68 14.7
1 -1 1 1190.48 14.2
1 1 1 1183.78 16
1 1 1 1188.68 15.3
-1 1 -1 1190.98 16.9
1 1 1 1199.48 14.8
-1 1 -1 1186.38 15.5
-2 -1 -1 324.77 7.5
-2 -1 -1 317.47 8
2 -1 1 322.37 7.2
2 -1 1 310.87 6.8
2 -1 1 322.07 8.7
-2 -1 -1 309.67 6.5
2 1 1 325.27 7.4
2 1 1 308.97 6.4
-2 1 -1 318.17 7.2
2 1 1 310.97 8.2
3 -1 1 1121.59 18.2
-3 -1 -1 1127.79 17.4
3 -1 1 1167.98 18.3
-3 -1 -1 1163.38 20.6
3 -1 1 1133.59 21.7
-3 -1 -1 1117.29 18.8
3 1 1 1135.49 18.8
-3 1 -1 1151.58 18.4
3 1 1 1135.49 17
3 1 1 1109.09 21.1
-3 1 -1 1138.19 21.1
4 -1 1 285.67 9.1
4 -1 1 286.07 11.3
4 -1 1 278.77 8.6
-4 -1 -1 262.97 7.9
-4 -1 -1 267.17 10.1
4 1 1 292.27 8
4 1 1 290.37 11.1
-4 1 -1 271.67 10.4
-4 1 -1 274.37 8.7
4 1 1 277.67 9.3
5 -1 1 206.48 8
5 -1 1 199.28 10.6
-5 -1 -1 200.68 7.6
5 1 1 207.28 7.5
-5 1 -1 213.68 8.3
5 1 1 220.38 10.9
-6 -1 -1 878.31 18.5
6 -1 1 896.61 25.5
-6 1 -1 861.21 19.2
6 1 1 868.11 25.1
7 -1 1 -0.3 2.5
-7 -1 -1 4.6 2.2
7 1 1 -2.4 2.2
-7 1 -1 2.4 2.3
-8 -1 -1 244.38 10.8
8 -1 1 261.77 16.3
-8 1 -1 241.78 11.2
8 1 1 255.47 16.2
8 -2 -1 283.27 16.9
8 2 -1 273.27 16.7
-8 2 1 305.77 12.2
7 -2 -1 21.1 5.8
-7 -2 1 16 3
-7 2 1 22.9 4
7 2 -1 20.3 5.5
6 -2 -1 40.4 6.7
-6 -2 1 40.4 3.8
-6 2 1 37.2 4.5
6 2 -1 34.9 3.6
6 2 -1 46.9 6.9
5 -2 -1 89.79 7.3
5 -2 -1 86.99 5.3
-5 -2 1 85.79 4.2
-5 2 1 95.59 5.4
5 2 -1 84.59 4.2
5 2 -1 82.49 8.1
-4 -2 1 13.2 2.8
-4 -2 1 9.8 1.6
4 -2 -1 11.7 2.2
4 -2 -1 8.4 2.7
4 2 -1 13.1 2.6
4 2 -1 12.7 1.8
-4 2 1 8.6 2
4 2 -1 8.3 2.5
-4 2 1 9 2.4
-3 -2 1 136.99 3.8
-3 -2 1 133.69 5.9
3 -2 -1 131.99 6.5
3 -2 -1 129.69 5.1
-3 2 1 131.59 5.1
3 2 -1 134.69 3.7
-3 2 1 143.09 6.3
3 2 -1 135.99 5.7
3 2 -1 133.59 6.3
2 -2 -1 1.5 1.1
-2 -2 1 2.4 1
2 -2 -1 4.6 1.1
-2 -2 1 3.5 1.2
2 2 -1 2 1.1
2 2 -1 4.6 1.3
-2 2 1 1.5 1.1
-2 2 1 1.8 0.9
0 -2 1 -1.1 0.3
0 -2 1 -0.8 0.5
0 -2 -1 0.1 0.6
0 2 -1 -1.1 0.4
0 2 -1 -0.7 0.3
-1 -2 -1 24.4 1.9
-1 -2 -1 28.2 1.7
1 2 1 28.6 1.8
1 2 1 27 1.9
-1 2 -1 29.7 2.2
-1 2 -1 28.8 2
2 -2 1 1679.63 25.5
-2 -2 -1 1643.24 23.4
-2 -2 -1 1669.83 21
2 -2 1 1630.94 22.7
2 -2 1 1639.54 21.2
-2 2 -1 1644.34 22.8
-2 2 -1 1677.93 25.2
2 2 1 1642.44 22.8
2 2 1 1682.93 24.2
2 2 1 1672.03 21
-3 -2 -1 179.98 6.8
-3 -2 -1 178.78 6.9
3 -2 1 177.08 6
3 -2 1 192.28 8
-3 -2 -1 170.08 5.4
3 -2 1 180.18 6.4
3 2 1 185.68 7.5
3 2 1 177.38 6.6
-3 2 -1 183.98 6.5
3 2 1 193.98 5.5
-4 -2 -1 5255.87 64.99
4 -2 1 5289.57 63.99
-4 -2 -1 5189.58 61.59
4 -2 1 5241.28 71.19
4 -2 1 5370.16 63.79
-4 -2 -1 5383.56 68.49
4 2 1 5295.37 61.09
4 2 1 5217.78 70.09
-4 2 -1 5346.06 64.29
4 2 1 5226.98 64.89
-4 2 -1 5341.27 69.99
-5 -2 -1 208.38 7.6
5 -2 1 239.58 11.6
5 2 1 235.08 7.6
-5 2 -1 218.58 8.7
5 2 1 214.68 10.9
-6 -2 -1 9.5 2.4
6 -2 1 4.5 3.1
-6 2 -1 7.7 2.6
6 2 1 3.6 1.8
6 2 1 6 3.5
7 -2 1 38.1 7
-7 -2 -1 66.09 5.9
7 2 1 75.09 9.4
-7 2 -1 61.19 6.5
8 -2 1 40.9 8.6
-8 2 -1 60.69 7.1
8 2 1 43.2 8.6
8 -3 -1 94.99 12.2
8 3 -1 73.99 10.4
7 -3 -1 18.3 5.4
-7 -3 1 22.3 3.4
-7 3 1 20.6 4
7 3 -1 25.9 6.1
-6 -3 1 382.06 9.6
6 -3 -1 387.26 16.5
6 3 -1 398.26 16.4
-6 3 1 394.86 12.6
5 -3 -1 889.71 23.3
-5 -3 1 911.41 15
5 3 -1 927.41 14.9
-5 3 1 914.51 18.9
5 3 -1 945.61 23.3
4 -3 -1 2870.31 44.9
4 -3 -1 2915.91 39.5
-4 -3 1 2868.41 34.2
-4 -3 1 2942.41 42.6
4 3 -1 2954.2 34.1
4 3 -1 2883.41 44
-4 3 1 2879.91 43.3
-4 3 1 2900.41 39.3
4 3 -1 2882.01 40.7
3 -3 -1 213.88 6.9
-3 -3 1 201.38 4.4
-3 -3 1 201.08 7.2
3 -3 -1 187.48 7.8
-3 -3 1 197.68 7.1
3 3 -1 206.28 7.8
3 3 -1 202.48 7.1
-3 3 1 200.58 6.7
-3 3 1 193.28 7.5
-2 -3 1 4143.09 49.5
-2 -3 1 4092.09 48.1
2 -3 -1 4116.29 50.69
2 -3 -1 4163.98 48.3
-2 3 1 3947 48
2 3 -1 4131.49 50.19
2 3 -1 4157.88 48
-2 3 1 4095.29 50.09
1 -3 -1 9911.01 105.29
-1 -3 1 9999 102.19
1 -3 -1 9911.91 107.69
-1 -3 1 9857.61 104.09
1 3 -1 9969.1 104.99
1 3 -1 9808.82 108.59
-1 3 1 9893.81 107.29
0 -3 1 8.1 0.9
0 -3 -1 7.1 1.1
0 -3 1 7.4 1
0 3 -1 6.1 1
0 3 1 9.9 1.3
0 3 -1 7.2 0.8
-1 -3 -1 5.7 0.9
1 -3 1 2.5 1.1
-1 -3 -1 2.1 1
-1 3 -1 4 1.2
1 3 1 3.4 0.9
1 3 1 3.2 1.1
-2 -3 -1 119.19 4.9
-2 -3 -1 119.49 3.8
-2 -3 -1 120.09 4.5
2 3 1 117.09 4.8
-2 3 -1 109.59 4.6
2 3 1 129.89 4.9
-2 3 -1 133.59 5.7
3 -3 1 1726.93 29.5
-3 -3 -1 1685.53 26.3
-3 -3 -1 1726.83 23.3
3 -3 1 1758.62 26.1
-3 -3 -1 1733.83 26.7
3 -3 1 1768.42 24.5
-3 3 -1 1756.32 26.3
3 3 1 1744.23 28.1
-3 3 -1 1798.42 29.3
3 3 1 1717.63 26.2
4 -3 1 91.09 5.2
-4 -3 -1 89.89 4.5
4 -3 1 91.39 6.7
-4 -3 -1 94.09 5.9
-4 -3 -1 84.49 5.6
4 -3 1 81.69 5.2
-4 3 -1 81.89 5.3
4 3 1 80.79 6.1
4 3 1 77.89 4.1
-4 3 -1 86.69 6.4
-5 -3 -1 382.66 10.2
5 -3 1 431.56 15.8
-5 -3 -1 384.36 12.7
5 3 1 396.46 10
5 3 1 400.26 14.8
-5 3 -1 389.36 12.1
-6 -3 -1 93.29 5.5
-6 3 -1 88.49 6.5
6 3 1 98.79 9.5
6 3 1 85.69 5.2
-7 -3 -1 102.79 6.3
-7 3 -1 119.39 7.9
7 3 1 115.19 11.5
8 -3 1 4.2 3.8
8 3 1 -4.1 3.1
-8 3 -1 1.5 2.6
8 -4 -1 135.89 14.4
8 4 -1 170.28 13.5
7 -4 -1 53.79 8.5
-7 4 1 45.6 5.8
7 4 -1 52.49 8.3
-6 -4 1 1173.98 18.4
6 -4 -1 1127.09 29.4
6 4 -1 1172.98 29.4
-6 4 1 1205.28 24.4
-5 -4 1 1190.68 17.3
5 -4 -1 1150.98 27.2
5 4 -1 1155.48 26.6
-5 4 1 1168.38 22.8
4 -4 -1 331.87 10.3
-4 -4 1 345.07 11
-4 -4 1 341.77 6.9
4 -4 -1 354.96 12.6
-4 -4 1 342.17 10.9
4 4 -1 330.57 11.8
-4 4 1 321.07 10.2
-4 4 1 327.47 11.5
-3 -4 1 664.83 14.3
3 -4 -1 709.03 14.4
3 -4 -1 712.53 16.3
-3 -4 1 696.43 14.6
-3 4 1 682.23 14.2
3 4 -1 659.43 15.2
3 4 -1 719.63 14.6
-3 4 1 681.43 15.3
-2 -4 1 1567.44 22.7
-2 -4 1 1587.44 23.1
2 -4 -1 1543.15 23.9
2 -4 -1 1588.94 23.1
2 4 -1 1564.04 23.6
2 4 -1 1600.44 22.7
-2 4 1 1574.14 23.7
1 -4 -1 572.44 10.8
-1 -4 1 554.24 8.5
-1 -4 1 568.14 9.9
-1 4 1 576.64 10
1 4 -1 571.44 10.4
1 4 -1 562.64 9.7
0 -4 -1 591.24 10.2
0 -4 1 584.14 9.8
0 -4 1 573.14 8.7
0 4 1 573.64 10.1
0 4 -1 562.24 9.6
0 4 -1 576.74 8.6
1 -4 1 54.89 3.1
-1 -4 -1 71.59 2.5
-1 -4 -1 60.29 3.3
-1 4 -1 56.49 3.1
1 4 1 61.99 2.5
1 4 1 70.29 3.3
2 -4 1 9.3 1.8
-2 -4 -1 6.2 1.3
-2 4 -1 8.3 1.7
-2 4 -1 15.8 2.7
2 4 1 10 1.9
2 4 1 7.6 1.6
-3 -4 -1 -0.1 0.8
-3 -4 -1 -0.1 0.8
3 -4 1 -0.2 1
3 -4 1 0.8 1.2
-3 -4 -1 2.7 1.7
-3 4 -1 0.7 1.1
3 4 1 0.9 1.4
-3 4 -1 1.3 1.5
3 4 1 0.5 1.1
-4 -4 -1 3250.17 45.6
4 -4 1 3259.87 50.29
-4 -4 -1 3298.27 46.2
4 -4 1 3285.07 42.7
-4 -4 -1 3278.17 40.5
-4 4 -1 3082.99 48.6
-4 4 -1 3344.27 45.4
4 4 1 3297.27 48.3
-5 -4 -1 252.17 10.5
5 -4 1 255.47 12.3
-5 -4 -1 254.17 8
5 4 1 259.37 11.9
-5 4 -1 246.08 9.9
6 -4 1 117.99 9.5
-6 -4 -1 116.49 6
6 4 1 115.09 9.2
-6 4 -1 97.99 7.1
-7 -4 -1 423.76 12.2
7 -4 1 434.26 19.5
7 4 1 462.05 19.6
-7 4 -1 424.06 15
-8 4 -1 152.28 10
8 4 1 149.49 14.7
7 -5 -1 21.8 5.8
7 5 -1 18.4 5.6
6 -5 -1 104.79 11.1
6 5 -1 98.09 9.6
-6 5 1 112.79 7.4
5 -5 -1 2.2 2.4
5 5 -1 2.9 2.4
-5 5 1 -1.4 1.5
4 -5 -1 3832.62 55.99
-4 -5 1 3794.12 51.69
4 5 -1 3845.82 55.09
-4 5 1 3942.91 54.79
-4 5 1 3846.82 51.39
3 -5 -1 41.3 4.5
-3 -5 1 39.4 4
-3 -5 1 36 4.1
-3 -5 1 37 2
3 -5 -1 34.6 3.6
3 5 -1 43.4 4.4
-3 5 1 34.1 4
3 5 -1 34.1 3.9
-3 5 1 39.6 4.1
-2 -5 1 3216.48 40.4
2 -5 -1 3177.68 40.9
-2 -5 1 3133.29 39.7
2 -5 -1 3135.89 41.4
-2 5 1 3181.78 41.2
2 5 -1 3145.59 41.1
2 5 -1 3125.09 39.5
1 -5 -1 885.41 14.6
-1 -5 1 875.61 12.9
-1 -5 1 867.31 14
1 -5 -1 892.51 15.3
-1 5 1 883.11 14
1 5 -1 880.61 13.9
1 5 -1 862.61 14.4
0 -5 1 1178.08 16
0 -5 1 1205.78 17.3
0 -5 -1 1156.78 17.6
0 5 1 1180.98 17.5
0 5 -1 1212.08 15.9
-1 -5 -1 540.95 11
1 -5 1 530.15 11
1 -5 1 518.15 8.9
-1 5 -1 522.15 10.9
1 5 1 528.65 9
1 5 1 525.15 10.7
2 -5 1 1006.7 18
-2 -5 -1 994.1 17.8
-2 -5 -1 1009.3 16.1
-2 5 -1 1023.2 19.3
2 5 1 1012.1 17.1
2 5 1 1022.8 17.7
-2 5 -1 1034.9 18.1
-3 -5 -1 126.09 5.6
-3 -5 -1 126.79 6.3
3 -5 1 129.19 6.2
-3 -5 -1 127.39 4.6
3 5 1 137.89 6.5
3 5 1 120.39 6
-3 5 -1 124.29 6.2
-3 5 -1 122.49 6.8
4 -5 1 99.09 7.2
-4 -5 -1 102.69 4.7
-4 -5 -1 87.19 5.7
-4 -5 -1 104.29 6.5
-4 5 -1 95.29 6.1
4 5 1 89.39 6.5
-5 -5 -1 216.78 7.3
-5 -5 -1 212.08 9.9
5 -5 1 227.38 11.7
5 5 1 214.88 10.8
-5 5 -1 209.28 9.4
-6 -5 -1 245.08 8.3
6 -5 1 245.98 13.6
-6 -5 -1 238.98 11.4
6 5 1 235.98 12.9
-6 5 -1 247.38 11
7 -5 1 197.58 13.3
7 5 1 179.78 12.6
-7 5 -1 183.18 10.3
-8 5 -1 84.29 9
8 5 1 89.89 11.4
7 -6 -1 2.1 3.1
7 6 -1 -4.1 2.4
6 -6 -1 11.5 4.1
6 6 -1 6 3.3
-5 -6 1 48.8 5.9
5 -6 -1 53.99 7.1
5 6 -1 51.29 6.3
-5 6 1 55.79 5.6
4 -6 -1 569.84 16.8
-4 -6 1 553.34 14.9
-4 6 1 572.34 16
4 6 -1 580.14 16.3
3 -6 -1 189.88 8.2
-3 -6 1 194.38 7.7
-3 -6 1 202.78 4.8
-3 -6 1 193.58 7.4
3 -6 -1 200.88 8.2
-3 6 1 193.68 8.1
3 6 -1 220.48 8
3 6 -1 192.68 7.9
-2 -6 1 510.45 11.6
2 -6 -1 499.15 12.1
-2 6 1 519.15 12
2 6 -1 510.45 11.5
2 6 -1 516.55 11.9
-1 -6 1 1201.08 18.4
-1 -6 1 1199.68 17.3
1 -6 -1 1201.98 18.9
1 -6 -1 1244.88 20.1
1 6 -1 1220.48 18.9
-1 6 1 1265.87 18.5
1 6 -1 1203.78 18.1
0 -6 -1 649.43 12.5
0 -6 1 674.93 12.3
0 -6 1 660.63 11.2
0 6 -1 658.33 11.1
0 6 1 691.73 12.6
1 -6 1 11.5 2
1 -6 1 13.4 1.7
-1 -6 -1 12.3 2.1
-1 6 -1 10.6 2.1
1 6 1 13.2 2
1 6 1 12.8 1.6
-2 -6 -1 2380.06 30.9
2 -6 1 2396.86 33.9
-2 -6 -1 2320.07 33.2
-2 6 -1 2367.16 35.3
-2 6 -1 2324.57 33.5
2 6 1 2378.36 32
2 6 1 2353.56 33
-3 -6 -1 35.6 3.1
-3 -6 -1 33 4
-3 -6 -1 40.6 4
-3 6 -1 29.8 4.2
3 6 1 36.8 4
-3 6 -1 32 3.9
3 6 1 41.5 4.3
-4 -6 -1 3857.21 53.49
-4 -6 -1 3930.01 52.69
-4 -6 -1 3846.02 46.9
4 6 1 3849.01 54.99
-4 6 -1 3886.21 53.29
-5 -6 -1 119.49 5.5
-5 -6 -1 129.69 8.3
5 6 1 109.69 8.1
-5 6 -1 131.79 7.8
-6 -6 -1 77.19 4.9
6 -6 1 87.39 9.5
-6 -6 -1 81.19 8.3
6 6 1 71.09 8.3
-6 6 -1 85.29 8
7 -6 1 141.29 11.5
-7 6 -1 138.69 9.4
7 6 1 139.29 12.8
-8 6 -1 268.17 13.7
7 -7 -1 6.4 3.9
7 7 -1 6.8 3.9
6 -7 -1 411.16 17.5
6 7 -1 445.16 17.6
5 -7 -1 304.97 13.5
-5 -7 1 289.67 12
5 7 -1 310.37 13.2
-4 -7 1 2346.07 37.5
4 -7 -1 2375.56 40.2
4 7 -1 2469.15 39.8
-3 -7 1 45.5 4.3
-3 -7 1 40.4 4.4
-3 -7 1 41.8 2.5
3 7 -1 48.3 4.6
-3 7 1 43.9 4.8
3 7 -1 47.1 4.7
2 -7 -1 733.63 15.9
2 -7 -1 751.72 14.9
-2 -7 1 718.83 14.9
-2 -7 1 750.52 12.3
-2 7 1 739.83 15.2
2 7 -1 749.13 14.9
2 7 -1 731.93 15.1
1 -7 -1 620.54 12.7
-1 -7 1 603.54 11.5
-1 -7 1 615.74 12.3
1 -7 -1 607.64 13.4
1 7 -1 625.34 12.5
-1 7 1 624.44 12.1
1 7 -1 627.74 12.1
0 -7 -1 870.91 15.8
0 -7 1 850.11 15.3
0 -7 1 828.62 14
0 -7 -1 838.02 15.5
0 7 -1 856.71 13.9
0 7 1 839.62 15.2
-1 -7 -1 315.97 9.1
1 -7 1 319.27 9.2
1 -7 1 317.07 7.5
1 7 1 310.77 8.8
1 7 1 308.27 7.1
2 -7 1 133.29 5
2 -7 1 134.19 6.5
-2 -7 -1 135.39 6.4
2 7 1 132.19 5.4
-2 7 -1 136.09 6.5
-2 7 -1 138.99 6.9
2 7 1 136.79 6.2
-3 -7 -1 562.34 12.6
-3 -7 -1 544.45 11.3
-3 -7 -1 551.54 14.3
-3 7 -1 542.85 15.5
3 7 1 535.25 13.6
-3 7 -1 554.54 14.6
-4 -7 -1 3.7 2.4
-4 -7 -1 7 2.3
-4 -7 -1 5.2 1.8
-4 7 -1 3.9 2.2
4 7 1 6.5 2.6
-5 -7 -1 140.69 8.8
-5 -7 -1 163.38 6.4
-5 7 -1 175.78 9.3
5 7 1 160.18 9.4
-6 -7 -1 768.82 21.5
-6 -7 -1 699.03 14.8
-6 7 -1 721.93 20.5
6 7 1 710.23 22.5
-7 7 -1 37.7 6.3
7 7 1 47.3 7.5
7 8 -1 3 3.9
6 8 -1 99.39 10.2
-5 -8 1 123.49 8.1
5 8 -1 113.49 8.4
-4 -8 1 160.18 8.5
4 8 -1 154.98 8.6
-3 -8 1 32.5 4.1
-3 -8 1 28.9 2.5
3 8 -1 30.4 4.1
-3 8 1 27.6 4
2 -8 -1 212.78 7.7
-2 -8 1 221.48 6.5
-2 -8 1 221.18 8
2 8 -1 218.88 7.8
-2 8 1 233.88 8.1
2 8 -1 222.28 7.9
-1 -8 1 3286.97 40.5
1 -8 -1 3168.58 41.6
1 -8 -1 3204.48 43.3
-1 -8 1 3119.19 40.7
1 8 -1 3259.97 40.6
1 8 -1 3133.59 41.5
-1 8 1 3288.67 41.3
0 -8 -1 1591.34 24.9
0 -8 1 1574.04 23.1
0 -8 -1 1616.04 25.3
0 -8 1 1645.24 25
0 8 -1 1608.84 22.9
0 8 1 1608.84 24.5
-1 -8 -1 368.66 10.4
1 -8 1 382.86 8.9
1 -8 1 373.26 10.7
1 8 1 374.36 8.3
1 8 1 383.16 10.3
2 -8 1 0.8 1
-2 -8 -1 0.6 1.6
2 8 1 0.7 1.2
2 8 1 -0.3 1.1
-2 8 -1 1 1.5
-2 8 -1 0.6 1.3
-3 -8 -1 9.4 2.8
-3 -8 -1 9.3 2.1
-3 8 -1 12.2 3.3
3 8 1 9.8 2.4
-3 8 -1 10.2 2.7
-4 -8 -1 2819.42 37
-4 -8 -1 2820.12 43.8
-4 8 -1 2802.72 44.2
4 8 1 2864.91 44.3
-5 -8 -1 6.4 3
-5 -8 -1 2.6 1.6
5 8 1 5 2.7
-5 8 -1 4.4 2.5
-6 -8 -1 337.07 14.5
6 8 1 307.27 14.7
-6 8 -1 316.97 13.8
-7 8 -1 50.09 7
7 8 1 56.69 8.5
7 9 -1 104.49 11.4
6 9 -1 124.49 10.1
-5 -9 1 14.5 3.8
5 9 -1 18.5 4.5
-4 -9 1 736.83 12.5
-4 -9 1 763.32 12.8
-4 -9 1 764.82 19.4
4 9 -1 759.02 19.7
-3 -9 1 750.12 13.4
3 -9 -1 756.42 17
-3 -9 1 754.82 17.7
-3 9 1 767.42 17.9
3 9 -1 720.53 17.4
2 -9 -1 715.13 15.6
-2 -9 1 742.43 13.8
-2 -9 1 694.73 15.8
2 9 -1 733.73 15.8
-2 9 1 718.63 15.9
2 9 -1 743.53 15.9
-1 -9 1 160.68 6.6
1 -9 -1 159.98 6.8
-1 -9 1 172.28 6.6
1 9 -1 158.18 6.4
1 9 -1 168.68 6.4
-1 9 1 163.68 6.3
0 -9 1 339.77 9.2
0 -9 -1 349.57 10.2
0 -9 1 351.76 10.3
0 -9 -1 350.76 10.5
0 9 1 346.87 7.7
0 9 -1 357.96 9
0 9 1 336.27 9.8
-1 -9 -1 114.99 6.1
1 -9 1 117.79 5.1
1 9 1 115.09 4.6
1 9 1 113.39 5.8
2 -9 1 184.08 6.5
-2 -9 -1 175.38 8
-2 9 -1 181.88 8.6
2 9 1 180.78 6.7
3 -9 1 45.9 4.4
-3 -9 -1 43.1 5.2
3 9 1 40.8 4.6
-4 -9 -1 173.08 6.7
-4 -9 -1 171.48 9.4
4 9 1 185.78 9.3
-4 9 -1 188.28 9.8
-5 -9 -1 8 3.4
-5 -9 -1 3.7 1.7
5 9 1 1.2 2.5
-5 9 -1 1.6 2.4
-6 -9 -1 225.78 12.3
6 9 1 223.08 12.7
-6 9 -1 199.28 11.4
7 9 1 -1.9 3.3
7 10 -1 1.8 4.1
-6 -10 1 175.98 11
6 10 -1 174.78 11.9
-5 -10 1 64.19 7.3
5 10 -1 61.29 7.6
4 -10 -1 195.18 9.1
-4 -10 1 199.48 10
4 10 -1 177.58 9.5
3 -10 -1 850.31 18.8
-3 -10 1 857.41 15.3
-3 -10 1 867.61 19.7
3 10 -1 826.12 19.3
-3 10 1 886.81 19.8
-2 -10 1 50.39 4
2 -10 -1 51.79 4.9
-2 -10 1 52.19 5.1
-2 10 1 58.39 5.3
2 10 -1 56.89 5.3
1 -10 -1 1249.77 22.5
-1 -10 1 1267.27 22.2
-1 -10 1 1312.17 22.2
1 10 -1 1246.68 21.8
-1 10 1 1296.97 21.7
1 10 -1 1280.97 21.8
0 -10 1 182.68 6.9
0 -10 -1 156.78 7.2
0 10 1 169.38 5.5
-1 -10 -1 353.46 11.1
1 -10 1 350.16 9.5
-1 -10 -1 367.56 12.1
1 10 1 347.37 8.7
2 -10 1 286.27 8.6
-2 -10 -1 277.17 10.5
2 10 1 277.97 8.6
-2 10 -1 275.67 10.8
-3 -10 -1 3.4 2.5
3 -10 1 7.4 2.2
3 10 1 4.4 2.1
-4 -10 -1 1176.48 20.5
-4 -10 -1 1144.39 25.8
4 -10 1 1203.38 22.6
4 10 1 1180.08 25.2
-5 -10 -1 -0.4 2.3
5 10 1 -1.5 2.2
-6 -10 -1 63.09 8.1
6 10 1 69.79 8.8
7 10 1 51.29 8.4
-6 -11 1 154.28 10.5
6 11 -1 159.58 11.6
-5 -11 1 8.6 3.6
5 11 -1 5.7 3.3
-4 -11 1 273.37 12.1
4 -11 -1 280.17 11.1
4 11 -1 269.07 11.8
3 -11 -1 787.12 18.3
-3 -11 1 775.92 19.2
3 11 -1 829.92 19.4
-3 11 1 797.92 19.4
-2 -11 1 489.05 13.9
-2 -11 1 486.85 12.3
2 -11 -1 488.25 13.5
-2 11 1 493.25 13.3
2 11 -1 489.05 13.5
-1 -11 1 568.94 14.1
1 -11 -1 548.15 14.3
1 11 -1 553.64 13.4
-1 11 1 546.25 13.1
1 11 -1 552.54 13.5
0 -11 1 290.57 9.2
0 -11 -1 256.37 9.7
0 11 1 295.67 7.7
1 -11 1 126.59 6
-1 -11 -1 143.19 7.5
1 11 1 137.99 5.5
-2 -11 -1 17.4 3.7
2 -11 1 19.2 2.9
2 11 1 19.4 3.1
-2 11 -1 21.1 4.1
-3 -11 -1 373.56 13.6
3 -11 1 376.36 11
3 11 1 378.96 11.9
-4 -11 -1 67.39 4.9
-4 -11 -1 80.29 8.4
4 -11 1 73.29 5.6
4 11 1 75.99 7.3
-5 -11 -1 3.1 3
5 11 1 0 2.5
-6 -11 -1 177.58 11.8
6 11 1 165.18 11.4
6 -12 -1 38.1 6.5
6 12 -1 37.3 6.9
5 -12 -1 51.69 6.4
-5 -12 1 42.4 6.3
5 12 -1 38.8 6.3
4 -12 -1 41.9 5.4
-4 -12 1 44.9 6.2
4 12 -1 48.1 6.3
-3 -12 1 55.69 6.3
3 -12 -1 55.49 5.7
3 12 -1 65.59 6.3
-2 -12 1 141.39 7.8
2 -12 -1 137.09 7.5
2 12 -1 145.89 7.5
-1 -12 1 250.97 9.6
1 -12 -1 260.77 10
1 12 -1 262.47 9.3
0 -12 1 1.8 2
0 -12 -1 4.9 2.3
0 12 -1 1 1.7
0 12 1 -0.8 1.3
1 -12 1 97.79 5.6
-1 -12 -1 96.99 6.7
1 12 1 87.49 4.7
-1 12 -1 92.19 6.6
2 -12 1 43.9 4.5
-2 -12 -1 48.7 6
2 12 1 42.9 4.2
3 -12 1 40.9 4.6
-3 -12 -1 41.7 5.8
3 12 1 32.4 4.3
4 -12 1 681.93 16.7
-4 -12 -1 721.33 20.8
4 12 1 678.73 18.7
-5 -12 -1 4.5 3.2
5 12 1 10.1 3.8
-5 -13 1 37.7 6.2
5 13 -1 34.3 6.8
4 -13 -1 392.36 13.9
-4 -13 1 398.46 15.4
4 13 -1 406.86 15.3
-3 -13 1 31.2 5.1
3 -13 -1 29.5 4.4
3 13 -1 32.7 4.8
2 -13 -1 0.9 1.8
-2 -13 1 3 2.6
2 13 -1 2.6 1.9
-1 -13 1 102.79 6.8
1 -13 -1 111.59 6.9
1 13 -1 105.89 6.2
0 -13 1 21.1 3.6
0 -13 -1 15.9 3.5
0 13 1 13.4 2.4
0 13 -1 18.8 3.3
-1 -13 -1 22.9 4.4
1 -13 1 24.8 3.7
1 13 1 21.1 3
-2 -13 -1 1.4 2.3
2 -13 1 0.4 1.8
-3 -13 -1 237.78 11.6
3 -13 1 224.38 9
-4 -13 -1 17.1 4.7
-5 -13 -1 9.1 4.1
-5 -14 1 18.4 4.7
-4 -14 1 151.78 10.3
3 -14 -1 456.25 14.8
-3 -14 1 444.96 15.6
2 -14 -1 0.4 1.8
-2 -14 1 -2.7 2
-1 -14 1 212.78 9.6
1 -14 -1 243.58 10.4
1 14 -1 223.08 9.2
0 -14 -1 319.17 12.2
0 -14 1 318.57 11.2
0 14 -1 335.37 10.8
1 -14 1 7.9 2.6
-1 -14 -1 9.3 3.4
-2 -14 -1 288.37 12.4
-3 -14 -1 14.8 4.6
-4 -14 -1 685.63 21.5
-4 -15 1 385.96 15.9
-3 -15 1 8.8 3.7
2 -15 -1 129.79 8.3
-2 -15 1 131.89 8.7
-1 -15 1 62.79 6.6
1 -15 -1 62.09 6.5
0 -15 -1 12.6 3.5
-1 -15 -1 11 3.7
-2 -15 -1 231.28 11.7
-3 -15 -1 124.79 10.7
-4 -15 -1 17.7 5
0 -16 -1 122.69 9.3
-1 -16 -1 54.49 6.8
-2 -16 -1 38.6 6.4
-3 -16 -1 -1.3 3.3
8 0 -2 129.89 13.3
7 0 -2 122.29 12.4
-6 0 2 1310.57 22.3
6 0 -2 1335.77 31.6
6 0 -2 1352.96 22.6
-5 0 2 81.09 4.3
5 0 -2 55.59 6.5
5 0 -2 74.59 4.3
4 0 -2 69.09 5.4
-4 0 2 64.99 4.9
-4 0 2 61.29 3.4
4 0 -2 65.89 4.6
4 0 -2 65.39 3.5
3 0 -2 4468.15 49.8
-3 0 2 4473.55 55.59
3 0 -2 4338.97 56.49
-3 0 2 4357.96 49.4
2 0 -2 3685.83 40.9
2 0 -2 3775.72 45.9
-2 0 2 3698.13 45.2
-1 0 2 515.15 8.6
1 0 -2 516.75 8.8
0 0 -2 79.79 2.5
0 0 -2 84.99 2.4
-1 0 -2 462.55 7.5
-1 0 -2 469.05 8.2
1 0 2 478.65 7.6
-1 0 -2 483.85 9.1
-2 0 -2 7105.19 76.69
2 0 2 7106.29 82.19
-2 0 -2 6969.7 78.19
2 0 2 7111.69 76.49
2 0 2 7086.99 77.39
-2 0 -2 7091.59 81.69
-3 0 -2 4845.12 61.09
-3 0 -2 4747.43 56.19
3 0 2 4759.52 56.09
3 0 2 4776.32 55.89
3 0 2 4770.12 61.89
-3 0 -2 4742.83 56.29
4 0 2 2631.54 35.5
-4 0 -2 2608.04 36.1
4 0 2 2551.14 41.6
-4 0 -2 2599.74 40.6
4 0 2 2594.84 36.5
5 0 2 900.71 23.4
5 0 2 883.21 17.9
-5 0 -2 898.31 18.6
6 0 2 792.12 24
-6 0 -2 797.62 18.5
7 0 2 0.1 2.6
-7 0 -2 2.7 2.2
-8 0 -2 775.42 20.4
8 0 2 725.03 27.3
8 -1 -2 26.5 6.8
8 1 -2 19.9 5.9
7 -1 -2 1.5 3
-7 -1 2 -0.2 1.4
7 1 -2 2.1 3
-6 -1 2 399.16 10.2
6 -1 -2 396.66 16.4
6 1 -2 372.86 15.8
6 1 -2 393.46 10.1
-6 1 2 377.56 11
5 -1 -2 235.68 11.3
5 -1 -2 228.28 7.7
-5 -1 2 226.18 6.8
-5 1 2 217.48 7.5
5 1 -2 219.28 6.7
5 1 -2 230.18 11
4 -1 -2 435.36 13.6
-4 -1 2 430.86 8.7
-4 -1 2 482.35 13.1
4 -1 -2 460.45 10.3
4 1 -2 458.05 9
-4 1 2 468.65 13.1
4 1 -2 449.95 13.7
4 1 -2 456.85 12.1
-4 1 2 426.06 10
3 -1 -2 819.02 13.7
3 -1 -2 817.92 17.2
-3 -1 2 837.92 16.5
-3 -1 2 839.72 11.9
3 1 -2 839.12 15.5
-3 1 2 843.02 16.5
3 1 -2 830.42 17.2
3 1 -2 853.21 12
-3 1 2 833.12 13.6
-2 -1 2 2485.85 32.3
2 -1 -2 2475.25 32.6
2 -1 -2 2474.75 29.3
2 1 -2 2461.25 27
-2 1 2 2488.55 32.1
2 1 -2 2393.26 32.5
1 -1 -2 4736.33 52.59
-1 -1 2 4714.13 53.19
1 1 -2 4669.23 53.29
-1 1 2 4718.43 52.29
0 -1 2 5336.17 56.69
0 -1 -2 5323.37 57.19
0 1 2 5388.46 56.69
0 1 -2 5241.58 56.99
1 -1 2 492.05 7.1
-1 -1 -2 496.55 8.8
1 -1 2 471.25 8.5
-1 -1 -2 493.85 8.4
-1 -1 -2 474.85 8.3
1 1 2 487.55 8.8
-1 1 -2 486.75 7.1
-1 1 -2 480.95 8.6
1 1 2 494.15 8.3
1 1 2 477.75 8.3
-2 -1 -2 5146.68 57.79
-2 -1 -2 5102.49 57.59
2 -1 2 5051.79 62.29
-2 -1 -2 5095.89 60.89
2 -1 2 5209.68 58.29
2 -1 2 5069.99 56.39
2 1 2 5126.49 57.69
2 1 2 5112.99 61.49
2 1 2 5117.89 57.39
-2 1 -2 5119.49 56.49
-2 1 -2 5190.18 62.29
-2 1 -2 5219.38 58.69
-3 -1 -2 1955.7 28.3
3 -1 2 1968.1 27.3
-3 -1 -2 1994.8 30.6
3 -1 2 2016.5 32.2
3 -1 2 1997.4 27.9
-3 -1 -2 1987.4 27.3
-3 1 -2 1957.1 28.1
3 1 2 1998.8 27
-3 1 -2 2002.4 31.6
3 1 2 1981 31.5
3 1 2 1999 28.2
4 -1 2 856.11 20.5
4 -1 2 873.41 16.9
-4 -1 -2 821.62 17.2
-4 -1 -2 817.12 18.9
4 -1 2 841.02 16.6
-4 -1 -2 833.72 16.2
-4 1 -2 806.32 16.7
4 1 2 837.12 17.2
-4 1 -2 826.82 19.5
4 1 2 855.61 20.4
4 1 2 834.52 15.7
-5 -1 -2 747.23 16.2
5 -1 2 733.93 20.9
-5 1 -2 730.43 16.9
5 1 2 734.53 20.8
5 1 2 734.33 15.6
6 -1 2 5.4 3
-6 -1 -2 6.1 2.4
-6 1 -2 5.3 2.5
6 1 2 8.1 3.9
-7 -1 -2 339.57 12.2
7 1 2 360.86 17.3
-7 1 -2 341.57 12.8
8 -1 2 128.49 14.4
-8 -1 -2 135.09 8.6
8 1 2 98.19 11.8
-8 1 -2 118.19 8.5
8 -2 -2 187.28 14.1
8 2 -2 181.48 13.8
7 -2 -2 298.17 15.9
7 2 -2 299.97 15.9
6 -2 -2 537.55 19.1
-6 -2 2 551.04 11.6
-6 2 2 531.25 14
6 2 -2 532.05 12.1
6 2 -2 559.14 19.4
-5 -2 2 37 2.7
5 -2 -2 45.1 4.3
5 -2 -2 34 5.6
-5 2 2 52.09 4.1
5 2 -2 34.7 5.4
5 2 -2 36.5 2.8
-4 -2 2 0.8 0.9
4 -2 -2 1.6 1.8
4 -2 -2 1.6 1.2
-4 -2 2 1.7 1.5
-4 2 2 0.4 1.2
4 2 -2 1 1.6
4 2 -2 2.1 1.7
-4 2 2 4.2 1.9
4 2 -2 3.6 1.1
3 -2 -2 190.08 7.6
-3 -2 2 203.68 7.3
3 -2 -2 208.28 6.3
-3 2 2 192.08 7.3
3 2 -2 208.08 7.9
3 2 -2 201.88 7
2 -2 -2 330.27 7.3
2 -2 -2 335.97 8.5
2 2 -2 338.27 7.8
2 2 -2 329.87 8.6
-2 2 2 341.57 8.2
1 -2 -2 2744.93 32
-1 2 2 2733.93 31.7
1 2 -2 2722.43 33.5
1 2 -2 2744.43 31
0 -2 2 9383.86 97.59
0 -2 -2 9228.08 98.29
0 2 -2 9130.29 97.99
0 2 2 9381.36 98.09
-1 -2 -2 1697.33 22
-1 -2 -2 1723.33 21.4
1 -2 2 1727.33 18.9
1 -2 2 1668.23 22
1 2 2 1693.23 21.9
1 2 2 1706.13 21.6
-1 2 -2 1659.93 22
-2 -2 -2 1208.88 17.5
-2 -2 -2 1210.78 19.1
2 -2 2 1222.28 18.6
2 -2 2 1228.48 16.7
-2 -2 -2 1255.17 18.7
-2 2 -2 1197.48 18.7
2 2 2 1239.18 18.6
-2 2 -2 1201.88 20.8
2 2 2 1232.58 19.7
-3 -2 -2 4110.09 51.69
-3 -2 -2 4264.17 54.29
3 -2 2 4268.17 51.89
-3 -2 -2 4184.68 50.09
3 -2 2 4280.77 49.99
3 -2 2 4278.37 57.09
3 2 2 4250.77 51.69
3 2 2 4205.68 55.39
3 2 2 4242.78 49.8
-3 2 -2 4254.27 52.29
-3 2 -2 4141.59 56.09
-4 -2 -2 140.09 6.9
-4 -2 -2 138.09 7.2
4 -2 2 138.29 6.5
-4 -2 -2 122.79 5.6
4 -2 2 132.39 6.1
4 2 2 128.69 6.5
4 2 2 117.29 7.3
4 2 2 120.09 5.3
-4 2 -2 125.89 7.4
-4 2 -2 125.39 6.4
-5 -2 -2 2.7 1.6
5 -2 2 9.1 3.2
-5 -2 -2 5 2.5
-5 2 -2 7.1 2.6
5 2 2 5.3 1.7
5 2 2 8.7 3.2
-6 -2 -2 182.98 8.2
6 -2 2 165.08 11.2
6 2 2 173.58 11.1
-6 2 -2 183.28 8.9
7 -2 2 9.2 4
-7 -2 -2 11.1 3
-7 2 -2 10.3 3.3
7 2 2 14 5.1
8 -2 2 274.37 17.1
-8 2 -2 263.77 12.4
8 2 2 264.97 16.2
8 -3 -2 20.1 6.1
8 3 -2 7.2 4.5
7 -3 -2 2.8 3.4
7 3 -2 8.3 3.9
-6 -3 2 305.17 7.7
6 -3 -2 305.57 14.5
6 3 -2 285.77 14
5 -3 -2 1053.99 25.3
-5 -3 2 1060.09 15.2
-5 3 2 1042.4 20
5 3 -2 1013.4 24.7
4 -3 -2 351.26 12.3
4 -3 -2 347.27 9.9
-4 -3 2 340.37 11.2
4 3 -2 350.66 10.9
4 3 -2 339.27 12
-4 3 2 340.57 11.3
3 -3 -2 19.6 3.1
3 -3 -2 23.6 2.8
-3 -3 2 26.6 3.2
3 3 -2 22.9 3.3
-3 3 2 19.2 2.8
3 3 -2 30.9 3.4
2 -3 -2 292.77 7.4
2 -3 -2 286.87 7.9
-2 -3 2 286.07 7.3
-2 -3 2 299.67 7.9
2 3 -2 283.17 8.1
2 3 -2 299.47 7.4
-2 3 2 279.17 7.4
-1 -3 2 4294.57 45.2
-1 -3 2 4243.58 46.9
1 -3 -2 4326.47 48.4
-1 3 2 4279.07 47.8
1 3 -2 4273.87 45
1 3 -2 4338.47 47
1 3 -2 4272.27 50.29
1 -3 2 58.69 3.1
-1 -3 -2 58.39 2.3
-1 -3 -2 54.89 3
-1 3 -2 57.19 3
1 3 2 58.69 2.5
1 3 2 56.59 3
-2 -3 -2 1136.39 18.4
-2 -3 -2 1157.88 17.9
2 -3 2 1132.29 15.7
2 -3 2 1167.28 18.6
-2 -3 -2 1147.89 17
-2 3 -2 1141.39 20.5
2 3 2 1157.58 18.5
-2 3 -2 1156.98 18.6
2 3 2 1138.79 18.5
3 -3 2 1990.2 26.6
-3 -3 -2 1968.3 26.7
-3 -3 -2 1984.3 29.6
-3 -3 -2 1895.11 28.9
3 -3 2 1878.41 32.1
3 -3 2 2015.8 29.1
-3 3 -2 1955.7 29.2
3 3 2 1924.41 30.6
3 3 2 1965.9 28.9
-3 3 -2 1960.7 32.2
-4 -3 -2 790.92 15.4
-4 -3 -2 811.22 17.9
4 -3 2 841.22 17.6
4 -3 2 840.72 20.9
4 -3 2 810.12 16
-4 -3 -2 819.62 18.4
-4 3 -2 820.42 17.6
4 3 2 827.22 19.6
5 -3 2 48.9 6.8
-5 -3 -2 36.2 4.8
-5 -3 -2 34.4 3.8
5 3 2 43.5 6.1
-5 3 -2 42.7 4.8
5 3 2 31.9 3.7
-6 -3 -2 643.74 15.3
6 -3 2 602.04 21.1
-6 3 -2 614.84 17.1
6 3 2 630.54 20.9
-7 -3 -2 277.47 10.6
7 -3 2 311.37 16.4
7 3 2 295.17 15.8
-7 3 -2 295.37 12.5
8 3 2 2.3 3.8
-8 3 -2 11.7 3.8
8 -4 -2 48 8.7
7 -4 -2 578.04 22.3
7 4 -2 631.34 23
6 -4 -2 968.9 26.8
6 4 -2 981.4 26.6
5 -4 -2 9.3 3.3
5 4 -2 2.8 2.3
4 -4 -2 160.08 8.4
4 -4 -2 158.68 7
4 4 -2 164.88 8.3
-4 4 2 162.28 7.8
-3 -4 2 205.38 7.4
3 -4 -2 199.88 8.1
3 -4 -2 197.08 7.1
-3 -4 2 209.38 7.7
3 4 -2 215.48 7.4
-3 4 2 200.88 7.6
3 4 -2 202.48 8
2 -4 -2 729.53 13.5
2 -4 -2 690.83 13.6
-2 -4 2 702.73 13.6
-2 -4 2 699.63 12.8
2 4 -2 720.33 12.9
2 4 -2 677.23 13.9
-2 4 2 703.93 13.1
1 -4 -2 925.11 15.1
-1 -4 2 901.61 13.3
-1 -4 2 911.71 12.1
1 -4 -2 912.21 13.3
1 4 -2 913.71 15.2
1 4 -2 913.81 13.3
-1 4 2 908.21 12.9
0 -4 2 1214.78 14.5
0 -4 2 1209.68 16.9
0 -4 -2 1210.28 18
0 4 2 1193.78 17.7
0 4 -2 1234.18 14.4
0 4 -2 1227.88 16.9
1 -4 2 47.3 3
-1 -4 -2 54.99 2.1
-1 -4 -2 54.69 3.3
1 4 2 53.09 2.4
-1 4 -2 51.29 3.1
1 4 2 53.29 3.1
2 -4 2 88.59 4.6
-2 -4 -2 89.69 4.6
-2 -4 -2 89.49 3.9
-2 4 -2 90.39 5.3
-2 4 -2 88.89 4.6
2 4 2 89.89 4.3
2 4 2 90.09 4.5
3 -4 2 2776.02 35.2
-3 -4 -2 2855.21 38.6
3 -4 2 2832.52 39.1
-3 -4 -2 2873.01 35.9
-3 -4 -2 2823.92 39.1
3 4 2 2872.71 39
-3 4 -2 2773.72 38.9
-3 4 -2 2842.62 42.6
3 4 2 2795.22 40.1
4 -4 2 52.49 4.1
-4 -4 -2 57.99 5.7
-4 -4 -2 63.59 5.9
-4 -4 -2 59.09 4
4 -4 2 68.89 6.7
-4 4 -2 50.29 4.7
4 4 2 49.4 5.4
-5 -4 -2 11.4 2.5
5 -4 2 8.4 3.2
-5 -4 -2 8.2 2.8
-5 4 -2 2.9 2
5 4 2 11.2 3.4
-6 -4 -2 2.7 2.4
6 -4 2 2.3 2.7
-6 -4 -2 1.9 1.9
6 4 2 2.2 2.6
-6 4 -2 4.6 2.5
7 -4 2 23.7 5.9
-7 -4 -2 13.2 3.2
-7 4 -2 22.5 4.7
7 4 2 13.9 5
8 4 2 431.16 20.9
-8 4 -2 476.05 17.3
7 -5 -2 73.79 9.9
7 5 -2 61.59 8.9
6 -5 -2 720.63 22.9
6 5 -2 726.53 22.7
5 -5 -2 586.14 18.6
5 5 -2 609.14 18.6
4 -5 -2 181.98 9.1
4 5 -2 192.68 9.2
-4 5 2 194.08 8.7
-3 -5 2 513.75 12.4
3 -5 -2 511.95 12.5
-3 -5 2 484.55 12.3
3 -5 -2 497.75 13.2
-3 5 2 520.45 12.8
3 5 -2 489.25 13.2
3 5 -2 489.45 12
2 -5 -2 587.64 12.7
-2 -5 2 588.14 12
2 -5 -2 618.84 12.8
2 5 -2 613.44 12
-2 5 2 593.34 12
2 5 -2 582.74 13
-1 -5 2 3 0.9
1 -5 -2 3.2 1.2
-1 -5 2 5.1 1.4
1 5 -2 4.2 1.1
1 5 -2 4.2 1.3
-1 5 2 4.8 1.1
0 -5 2 226.48 4.8
0 -5 -2 239.98 6.9
0 -5 2 213.78 6
0 5 -2 227.58 4.7
0 5 -2 238.18 6.1
0 5 2 228.48 6.6
-1 -5 -2 78.99 4.3
-1 -5 -2 84.99 2.7
1 -5 2 77.19 4.2
1 -5 2 82.59 2.7
1 5 2 81.39 4.2
-1 5 -2 77.49 4.1
1 5 2 79.99 2.9
-2 -5 -2 16.3 2
2 -5 2 16.7 2.6
-2 -5 -2 15 2.6
-2 5 -2 16.4 2.9
-2 5 -2 21 2.9
2 5 2 14.3 2.1
2 5 2 15 2.4
3 -5 2 506.25 12.9
-3 -5 -2 487.65 10.7
-3 -5 -2 495.15 11.7
-3 -5 -2 493.65 12.9
-3 5 -2 504.45 13
3 5 2 516.65 13
-3 5 -2 480.95 14.2
3 5 2 469.85 12.5
-4 -5 -2 10.8 2.1
4 -5 2 13 2.4
-4 -5 -2 10.5 3
-4 -5 -2 10.8 2.6
4 5 2 14.8 3.4
-4 5 -2 13.6 2.9
-5 -5 -2 23.4 4.2
-5 -5 -2 19.2 3
-5 5 -2 15 3.2
5 5 2 16.8 4
6 -5 2 145.59 10.7
-6 -5 -2 146.19 7
-6 -5 -2 126.29 8.7
6 5 2 124.89 9.6
-6 5 -2 143.29 8.7
7 -5 2 317.77 16.8
-7 -5 -2 307.17 11.1
-7 5 -2 330.47 13.9
7 5 2 312.47 16.2
8 5 2 88.39 11.8
-8 5 -2 87.89 8.8
7 -6 -2 899.81 28.5
7 6 -2 927.21 28.6
6 -6 -2 738.93 23.5
6 6 -2 767.72 23.7
5 -6 -2 175.18 10.2
5 6 -2 148.29 9.4
-4 -6 2 523.65 14.3
4 -6 -2 552.24 16.2
4 6 -2 536.25 15.8
-4 6 2 537.05 15
3 -6 -2 1070.69 21.1
-3 -6 2 1049.4 20.1
-3 -6 2 1063.39 19.8
-3 6 2 1079.09 20.3
3 6 -2 1077.49 21.3
3 6 -2 1093.39 19.8
-2 -6 2 372.56 6.7
-2 -6 2 357.26 9.3
2 6 -2 358.76 10.1
2 6 -2 347.17 9
-2 6 2 371.76 9.2
1 -6 -2 468.65 11
-1 -6 2 448.76 9.2
-1 -6 2 462.75 8.9
1 -6 -2 465.65 10.8
1 6 -2 463.45 9.2
-1 6 2 454.75 8.6
1 6 -2 458.95 10.6
0 -6 2 63.99 2.8
0 -6 2 64.49 3.6
0 -6 -2 58.19 3.8
0 6 -2 65.39 3.5
0 6 -2 66.29 2.7
0 6 2 67.79 3.8
-1 -6 -2 162.58 6.3
1 -6 2 157.98 4.2
1 -6 2 161.38 6.2
1 6 2 157.58 4.3
1 6 2 168.08 6.3
-1 6 -2 166.68 6.2
2 -6 2 652.43 14.5
-2 -6 -2 625.64 14.2
-2 -6 -2 657.33 11.7
2 6 2 630.44 12.5
-2 6 -2 669.43 14.6
-2 6 -2 665.73 15.9
2 6 2 649.43 14.2
-3 -6 -2 -0.8 0.9
-3 -6 -2 1.6 1.7
-3 -6 -2 3.2 1.2
-3 6 -2 2.4 1.9
-3 6 -2 2.9 1.7
3 6 2 0.7 1.3
-4 -6 -2 9.8 2.7
-4 -6 -2 6 2
-4 -6 -2 6.9 2.2
4 -6 2 5.6 2
-4 6 -2 3.1 2.1
4 6 2 3.7 2.2
-5 -6 -2 6.4 2
-5 -6 -2 2.8 2.4
5 6 2 0 2.2
-5 6 -2 -1.5 1.7
-6 -6 -2 2 2.5
-6 -6 -2 -1 1.4
6 6 2 0 2.6
-6 6 -2 -0.9 1.7
-7 6 -2 -1.1 2.5
7 6 2 -0.8 2.8
-8 6 -2 422.36 17.9
7 -7 -2 93.29 11.4
7 7 -2 79.59 10.1
6 -7 -2 2.9 2.9
6 7 -2 0.8 2.5
5 -7 -2 308.97 13.6
5 7 -2 308.37 13.4
-4 -7 2 98.19 6.5
4 -7 -2 103.89 7.1
-4 7 2 105.49 6.8
4 7 -2 100.79 7.1
-3 -7 2 10.9 2.6
-3 7 2 14.6 2.9
3 7 -2 12.5 2.8
3 7 -2 13.1 2.5
2 -7 -2 242.18 8.8
-2 -7 2 246.78 7.9
2 -7 -2 239.88 8.3
-2 -7 2 238.88 5.9
2 7 -2 245.08 8.5
-2 7 2 255.07 7.7
2 7 -2 252.57 7.8
-1 -7 2 88.79 4.2
-1 -7 2 81.09 3.8
1 -7 -2 82.49 4.9
1 -7 -2 89.29 4.8
-1 7 2 79.39 3.5
1 7 -2 74.39 3.7
1 7 -2 79.99 4.5
0 -7 2 1481.75 19.9
0 -7 -2 1445.86 23.3
0 -7 2 1474.05 22.4
0 7 2 1455.25 22.9
0 7 -2 1496.25 19.8
1 -7 2 114.49 3.9
1 -7 2 114.19 5.5
-1 -7 -2 107.89 5.5
-1 7 -2 100.89 5.2
1 7 2 114.19 3.7
1 7 2 113.09 5.4
2 -7 2 947.71 19
2 -7 2 964.5 14.9
-2 -7 -2 945.91 18.9
-2 -7 -2 952.1 15.2
-2 7 -2 967.7 20.5
2 7 2 953.2 16.4
-2 7 -2 946.01 18.8
2 7 2 940.91 18.6
-3 -7 -2 408.46 12.6
-3 -7 -2 435.36 10.6
-3 -7 -2 423.86 10.4
3 7 2 419.96 11.7
-3 7 -2 422.36 12.6
-3 7 -2 422.66 14
-4 -7 -2 224.18 8.8
-4 -7 -2 244.58 10.5
-4 -7 -2 233.38 7.8
4 7 2 224.68 9.9
-4 7 -2 230.98 10
-5 -7 -2 37.1 4
-5 -7 -2 39.5 5.5
-5 7 -2 45.2 5.7
5 7 2 35.3 5.5
-6 -7 -2 18.6 3.3
-6 -7 -2 18 4.3
-6 7 -2 21.2 4.5
6 7 2 19.6 4.8
-7 -7 -2 182.68 11.6
7 7 2 232.68 14.2
-7 7 -2 168.68 10.8
7 -8 -2 43.8 7.9
7 8 -2 43.3 7.8
6 -8 -2 49.99 7.6
6 8 -2 36.8 6.6
5 -8 -2 6.2 2.9
-5 -8 2 8.4 2.9
5 8 -2 8.4 3.3
-4 -8 2 622.74 16.5
4 8 -2 608.74 17.5
-3 -8 2 288.47 10.1
3 8 -2 304.37 10.8
-3 8 2 289.67 9.9
-2 -8 2 211.38 7.6
-2 -8 2 212.68 6
2 -8 -2 205.18 8
2 8 -2 210.78 7.4
-2 8 2 198.68 7
2 8 -2 207.28 8.1
1 -8 -2 3.1 1.6
-1 -8 2 1.3 1.1
-1 -8 2 1.1 1.3
1 -8 -2 4.4 1.9
-1 8 2 2.9 1.2
1 8 -2 2.3 1.2
1 8 -2 4.7 1.6
0 -8 -2 974.8 18.7
0 -8 2 1030.6 15.9
0 -8 2 1008.5 18
0 8 -2 1011 15.5
0 8 2 994.4 18.5
1 -8 2 1168.88 21.1
1 -8 2 1177.98 17.1
-1 -8 -2 1178.48 21.5
-1 8 -2 1141.89 20.8
1 8 2 1155.28 16.4
1 8 2 1173.58 20.9
2 -8 2 101.39 4.2
-2 -8 -2 105.59 6.2
-2 8 -2 101.59 6.5
-2 8 -2 94.09 5.8
2 8 2 103.29 4.8
-3 -8 -2 1317.77 21.5
-3 -8 -2 1295.67 25.1
3 8 2 1243.68 22.9
-3 8 -2 1313.87 25.4
-4 -8 -2 39.9 4
-4 -8 -2 47.8 5
-4 -8 -2 44.4 5.4
-4 8 -2 48.4 5.9
4 8 2 36 5.1
-5 -8 -2 3.5 2.9
-5 -8 -2 1 1.8
5 8 2 3.1 2.6
-5 8 -2 3.8 2.4
-6 -8 -2 12 4
-6 8 -2 9.4 3.7
6 8 2 7.1 3.8
-7 -8 -2 11.6 4.5
7 8 2 6.2 4.1
-7 8 -2 8.5 4.1
7 9 -2 8.1 4.5
6 9 -2 269.07 14.4
-5 -9 2 232.38 11.1
5 9 -2 245.58 12.4
-4 -9 2 15.6 3.7
4 9 -2 15.3 3.6
-3 -9 2 44.9 4.9
-3 -9 2 39.4 2.7
3 -9 -2 36.6 4.5
-3 9 2 38.7 4.5
3 9 -2 38.6 5
-2 -9 2 117.39 4.9
-2 -9 2 111.89 5.9
2 -9 -2 114.59 6.2
2 9 -2 103.59 5.5
2 9 -2 111.29 6.2
-2 9 2 116.19 5.5
1 -9 -2 28.3 3.6
-1 -9 2 24.3 3
-1 -9 2 24.1 2.9
1 9 -2 29.6 3.2
-1 9 2 29.6 2.9
1 9 -2 30.7 3.6
0 -9 -2 1977.4 30.7
0 -9 2 1978.6 29.8
0 -9 2 1948.61 26.8
0 9 -2 1995.3 26.6
0 9 2 1962.5 30.2
1 -9 2 251.27 6.9
-1 -9 -2 248.48 9.3
2 -9 2 33 3.1
-2 -9 -2 27.3 4
2 9 2 31.7 3.3
-2 9 -2 33.6 4.9
-2 9 -2 25.2 3.8
3 -9 2 1197.18 19.8
-3 -9 -2 1189.38 24.6
-3 9 -2 1194.98 24.8
3 9 2 1188.98 22.2
-4 -9 -2 496.85 12.4
-4 -9 -2 470.95 15.7
-4 9 -2 498.45 16
4 9 2 478.85 14.7
-5 -9 -2 510.35 12.8
-5 -9 -2 491.25 17.1
-5 9 -2 517.45 17.3
5 9 2 513.25 17.1
-6 -9 -2 3.4 3.1
6 9 2 0 2.7
-6 9 -2 2.2 2.4
7 9 2 334.67 17.1
7 10 -2 142.39 13.6
6 10 -2 341.47 16.3
-5 -10 2 4.8 2.7
5 10 -2 12 3.7
-4 -10 2 159.48 8.9
4 -10 -2 156.28 8.5
4 10 -2 150.98 9
-3 -10 2 -0.1 1.9
-3 -10 2 3.5 1.4
3 -10 -2 1.2 1.9
3 10 -2 2.9 2.1
-3 10 2 7 2.5
2 -10 -2 934.71 19.9
-2 -10 2 911.01 18.8
-2 -10 2 978.8 17.1
-2 10 2 971.6 18
2 10 -2 963.8 18.8
2 10 -2 943.81 19.9
1 -10 -2 60.59 5.4
-1 -10 2 69.19 4.6
-1 -10 2 58.09 4.4
1 10 -2 60.89 4.6
-1 10 2 62.99 3.7
1 10 -2 69.39 4.3
0 -10 -2 207.48 8.6
0 -10 2 228.68 8.8
0 -10 2 224.28 7.3
1 -10 2 165.78 6
-1 -10 -2 171.98 8.1
-2 -10 -2 165.88 8.4
2 -10 2 168.18 6.1
2 10 2 166.38 6.3
3 -10 2 1455.15 23.2
-3 -10 -2 1500.65 29
-3 10 -2 1488.25 29.1
3 10 2 1491.95 25.9
-4 -10 -2 247.08 11.7
4 -10 2 188.18 7.8
-4 -10 -2 199.68 8.1
4 10 2 209.48 9.8
-4 10 -2 212.78 10.8
-5 -10 -2 35.4 6.1
-5 -10 -2 22.6 3.4
-5 10 -2 30.4 5.5
5 10 2 35.7 5.7
-6 -10 -2 -1.5 2.7
6 10 2 -3.2 2.4
-6 10 -2 -1.2 2.2
7 10 2 26.9 6.8
6 11 -2 333.47 16.4
-5 -11 2 36.8 5.8
5 -11 -2 27 4.6
5 11 -2 32.9 5.8
-4 -11 2 227.28 10.8
4 -11 -2 239.58 10.7
4 11 -2 236.78 11.5
3 -11 -2 65.19 6.2
-3 -11 2 70.49 6.5
3 11 -2 57.59 6.2
-2 -11 2 445.66 11.2
2 -11 -2 400.76 12.8
-2 -11 2 423.16 12.4
2 11 -2 405.16 12.7
-2 11 2 410.76 11
1 -11 -2 0.4 1.6
-1 -11 2 0.2 1.6
-1 -11 2 -0.6 1.7
-1 11 2 0.3 1.3
1 11 -2 -1 1.3
1 11 -2 1.4 1.5
0 -11 -2 2435.66 37.9
0 -11 2 2484.55 33.9
-1 -11 -2 5.6 2.5
1 -11 2 3.9 1.6
-2 -11 -2 174.38 9
2 -11 2 176.68 6.6
2 11 2 183.48 6.7
-3 -11 -2 756.52 20.1
3 -11 2 733.53 15.2
3 11 2 772.72 17.1
-4 -11 -2 189.18 8.1
4 -11 2 176.48 7.8
-4 -11 -2 190.58 10.8
4 11 2 193.08 9.5
-5 -11 -2 9.1 3.8
5 11 2 2.7 2.7
6 -12 -2 220.78 11.9
6 12 -2 217.88 13.6
5 -12 -2 4.4 2.6
-5 -12 2 7.5 3.6
5 12 -2 0 2.6
4 -12 -2 174.68 9.5
-4 -12 2 189.28 10.2
4 12 -2 175.68 10.1
3 -12 -2 28.3 4.5
-3 -12 2 28.8 4.4
3 12 -2 28.6 4.7
2 -12 -2 31.9 4.6
-2 -12 2 43.9 5.1
2 12 -2 37.5 4.8
1 -12 -2 127.59 7.4
-1 -12 2 124.99 6.7
1 12 -2 147.39 7.4
0 -12 -2 136.79 7.7
0 -12 2 124.79 6.1
1 -12 2 97.99 5.2
-1 -12 -2 94.39 6.7
2 -12 2 1.8 1.6
-2 -12 -2 -0.6 2.3
2 12 2 2.9 1.7
3 -12 2 704.93 15.2
-3 -12 -2 707.53 20
3 12 2 742.63 16.8
-4 -12 -2 164.58 7.9
-4 -12 -2 144.09 9.9
-5 -12 -2 21.7 5.1
-5 -13 2 117.79 10.2
5 -13 -2 106.79 8.4
5 13 -2 115.99 10.9
-4 -13 2 113.19 8.5
4 -13 -2 125.89 8.4
4 13 -2 121.09 8.9
-3 -13 2 16.8 3.8
3 -13 -2 14.4 3.6
3 13 -2 15.5 3.7
-2 -13 2 3.5 2.6
2 -13 -2 4.9 2.3
2 13 -2 5.8 2.4
-1 -13 2 101.19 6.4
1 -13 -2 84.09 6.5
1 13 -2 87.39 6.1
0 -13 -2 766.62 19.5
0 -13 2 750.42 16.3
0 13 -2 754.42 17.7
-1 -13 -2 44.2 5.6
1 -13 2 48.8 4.6
-2 -13 -2 351.66 13.7
2 -13 2 352.76 10.9
-3 -13 -2 66.49 7.4
-4 -13 -2 127.89 9.8
-5 -13 -2 34.8 6.4
-5 -14 2 0.7 2.8
-4 -14 2 58.19 6.9
4 -14 -2 59.59 7
3 -14 -2 108.99 7.8
-3 -14 2 102.59 7.8
3 14 -2 118.29 8.2
-2 -14 2 196.18 9.4
2 -14 -2 192.98 9.9
2 14 -2 205.08 9.9
-1 -14 2 2.1 2.4
1 -14 -2 2.4 2.4
1 14 -2 4.9 2.4
0 -14 -2 70.79 7.2
0 -14 2 78.99 5.8
0 14 -2 71.99 6.5
-1 -14 -2 29.5 5
-2 -14 -2 418.76 15.4
-3 -14 -2 4.7 3.7
-4 -14 -2 7.4 4.5
3 -15 -2 1.8 2.3
2 -15 -2 0.6 2.6
1 -15 -2 2.8 2.5
0 -15 -2 304.07 12.8
-1 -15 -2 -1.4 2.4
-2 -15 -2 11.7 4.2
-3 -15 -2 93.59 9.5
1 -16 -2 3.2 2.9
0 -16 -2 3.9 3
-1 -16 -2 -0.3 2.7
-2 -16 -2 1.6 2.9
-3 -16 -2 304.37 16.6
8 0 -3 -0.3 2.8
7 0 -3 321.57 16.3
6 0 -3 52.09 7.4
6 0 -3 42.8 4.1
5 0 -3 3.2 2.3
5 0 -3 4.8 1.6
4 0 -3 416.96 9
-4 0 3 414.66 12.3
4 0 -3 412.86 13.2
3 0 -3 2040.6 31.3
-3 0 3 2038.2 30.2
3 0 -3 2014.2 25.3
2 0 -3 2026.8 28.3
-2 0 3 2035.3 27.7
1 0 -3 1395.26 19.1
-1 0 3 1373.86 18.8
0 0 -3 2307.77 27.5
0 0 -3 2356.56 26.7
-1 0 -3 261.67 6.4
1 0 3 273.37 5.6
1 0 3 264.17 6.3
-1 0 -3 266.47 5.6
-2 0 -3 1497.75 23.7
2 0 3 1464.45 20.3
2 0 3 1435.66 23.5
2 0 3 1500.05 21.3
-2 0 -3 1472.65 21.5
-2 0 -3 1502.05 20.5
-3 0 -3 508.85 11.4
3 0 3 513.25 11.3
-3 0 -3 506.05 13.4
3 0 3 525.45 11.5
3 0 3 512.95 13.9
-3 0 -3 504.15 11.6
4 0 3 224.38 8.2
4 0 3 227.88 8
-4 0 -3 228.18 8.3
4 0 3 210.18 10
-4 0 -3 220.38 8.2
-4 0 -3 220.28 9.7
5 0 3 4955.8 72.39
-5 0 -3 5061.79 64.19
6 0 3 44.2 6.4
-6 0 -3 47.1 5.3
7 0 3 44.1 7.3
-7 0 -3 54.99 6.4
8 0 3 95.49 12.7
-8 0 -3 78.59 7.7
8 -1 -3 132.09 13.5
8 1 -3 121.99 13.3
7 -1 -3 57.89 8.6
7 1 -3 61.69 8.7
6 -1 -3 116.09 6.1
6 -1 -3 97.79 10.1
6 1 -3 116.69 5.6
6 1 -3 111.49 9
5 -1 -3 3.6 1.6
5 -1 -3 0.4 1.8
5 1 -3 1.1 1.1
5 1 -3 1.6 1.9
-4 -1 3 3.7 1.8
4 -1 -3 1.5 1.5
4 -1 -3 1.6 1.1
4 1 -3 1.8 1.6
-4 1 3 -1.4 1.2
4 1 -3 2 0.9
4 1 -3 1.9 1.6
3 -1 -3 12.3 2.4
-3 -1 3 13.4 2.6
3 -1 -3 11.3 1.6
3 1 -3 9.8 2.3
3 1 -3 11.9 1.3
-3 1 3 9 2.2
2 -1 -3 436.96 9.8
2 1 -3 438.96 6.5
-2 1 3 437.56 9.5
2 1 -3 414.76 10
1 -1 -3 3295.37 38.5
1 1 -3 3280.37 39.6
-1 1 3 3313.37 38.3
1 1 -3 3293.77 35.8
0 -1 3 662.23 10
0 -1 -3 669.63 10.4
0 1 3 664.43 10.4
0 1 -3 660.63 8.9
0 1 -3 672.33 10.1
1 -1 3 695.53 11.5
-1 -1 -3 677.93 11.1
1 -1 3 697.93 9.7
-1 -1 -3 686.53 11.8
-1 -1 -3 679.33 11.5
-1 1 -3 682.93 11.6
1 1 3 695.23 11.1
-1 1 -3 695.13 9.6
-2 -1 -3 5872.41 69.09
-2 -1 -3 5856.91 65.99
2 -1 3 5759.62 65.99
2 -1 3 5837.92 63.49
-2 -1 -3 5758.02 65.09
2 1 3 5882.41 65.69
-2 1 -3 5818.12 63.59
-2 1 -3 5810.22 70.29
2 1 3 5804.02 65.09
2 1 3 5805.22 69.39
3 -1 3 218.58 7.2
-3 -1 -3 200.78 7.9
3 -1 3 204.98 6.5
3 -1 3 195.88 8.5
-3 -1 -3 208.38 7.1
-3 -1 -3 203.28 6.9
-3 1 -3 202.38 7.3
3 1 3 215.58 8.6
-3 1 -3 194.68 6.5
3 1 3 215.68 6.8
3 1 3 192.18 6.8
4 -1 3 2010.6 29.7
-4 -1 -3 1969.2 29.8
4 -1 3 1958.5 29.9
-4 -1 -3 1999.4 33.8
-4 -1 -3 2006 30.8
4 -1 3 1943.01 35.3
-4 1 -3 2030.9 31
4 1 3 1909.21 34.3
4 1 3 1997.5 30.5
-4 1 -3 1946.31 34.4
4 1 3 2013.1 29.4
5 -1 3 83.59 8.1
-5 -1 -3 94.39 6.4
-5 -1 -3 88.39 5.7
-5 1 -3 83.79 6
5 1 3 94.79 9.2
-6 -1 -3 40.2 4.8
6 -1 3 30 5.9
-6 1 -3 38.6 5.2
6 1 3 38.7 6.9
-7 -1 -3 615.94 17.4
7 1 3 614.84 23
-7 1 -3 649.43 18.3
8 -1 3 77.69 10.9
-8 -1 -3 67.29 7.2
-8 1 -3 70.29 7.8
8 1 3 70.09 9.8
8 -2 -3 -3.7 2.9
8 2 -3 0.6 3.5
7 -2 -3 580.34 22
7 2 -3 530.45 21.2
6 -2 -3 175.98 11.2
6 2 -3 200.58 11.7
5 -2 -3 4.1 1.6
5 -2 -3 0.7 1.9
5 2 -3 1.5 1
5 2 -3 5.6 2.6
4 -2 -3 19.2 2.6
4 -2 -3 17.8 3.4
-4 -2 3 19.4 3.7
4 2 -3 13.2 3
4 2 -3 20.3 3.1
-4 2 3 17.4 3.1
3 -2 -3 1398.76 20.7
3 -2 -3 1393.66 24
-3 -2 3 1382.06 23.3
3 2 -3 1345.37 23.9
3 2 -3 1395.46 22
-3 2 3 1369.56 22.8
-2 -2 3 551.94 11.5
2 -2 -3 542.45 11.4
-2 2 3 559.24 10.9
2 2 -3 550.44 10.6
1 -2 -3 169.98 4.4
-1 2 3 165.18 4.2
1 2 -3 166.08 3.4
0 -2 -3 556.34 9.9
0 -2 3 567.84 9.1
0 2 -3 559.34 9.2
0 2 3 562.74 9.9
1 -2 3 1577.04 17.7
-1 -2 -3 1566.74 20.8
-1 -2 -3 1580.74 21.4
1 -2 3 1557.94 21.4
-1 2 -3 1568.34 17.7
1 2 3 1552.04 21.2
-1 2 -3 1548.45 21.5
2 -2 3 3264.67 37.8
-2 -2 -3 3339.47 42.3
2 -2 3 3376.56 41.4
-2 -2 -3 3274.07 40.8
-2 -2 -3 3306.27 40.4
2 2 3 3309.07 40.8
2 2 3 3370.86 42.8
-2 2 -3 3332.77 45
-2 2 -3 3291.37 37.8
-3 -2 -3 19 2.7
-3 -2 -3 17 2.5
3 -2 3 19.9 3.2
-3 -2 -3 17.3 2.9
3 -2 3 23.2 3.1
3 -2 3 19.4 2.5
-3 2 -3 22.2 3.7
3 2 3 17 2.4
3 2 3 17.8 3
-3 2 -3 17 2.8
3 2 3 19.2 2.8
-4 -2 -3 317.77 10.4
4 -2 3 302.67 12.2
-4 -2 -3 325.27 11.2
4 -2 3 314.37 10.1
-4 -2 -3 307.87 9.5
4 -2 3 323.67 9.5
4 2 3 321.47 11.9
-4 2 -3 321.07 10.5
4 2 3 326.37 9.3
4 2 3 312.17 10.5
5 -2 3 0.4 1.9
-5 -2 -3 1.4 1.7
-5 -2 -3 3 2.1
-5 2 -3 2.7 1.8
5 2 3 2.3 2.4
-6 -2 -3 229.08 9.5
-6 2 -3 246.78 10.7
6 2 3 239.28 13.1
7 -2 3 193.28 13.1
-7 -2 -3 182.78 9.2
-7 2 -3 187.48 10.2
7 2 3 186.28 12.7
-8 -2 -3 9.8 3.6
8 2 3 5.8 4.2
-8 2 -3 9.9 3.5
8 -3 -3 0.9 3.8
7 -3 -3 36.1 6.8
7 3 -3 39.9 7.2
6 -3 -3 12.1 4
6 3 -3 14.5 4.2
5 -3 -3 60.79 7.1
5 3 -3 71.49 7.7
4 -3 -3 970.4 21.8
4 -3 -3 978 18.2
4 3 -3 999.4 22.1
-4 3 3 1027.1 20.8
-3 -3 3 65.19 4.4
3 -3 -3 57.99 4.4
3 -3 -3 75.49 4.1
3 3 -3 66.49 4.8
-3 3 3 57.29 4
3 3 -3 70.09 4.2
2 -3 -3 1105.39 17.3
-2 -3 3 1088.99 18.5
2 -3 -3 1100.69 18
2 3 -3 1081.99 18.9
-2 3 3 1087.99 17.1
2 3 -3 1096.99 17
1 -3 -3 746.23 11.2
-1 -3 3 754.92 9.9
1 3 -3 739.63 9.9
1 3 -3 745.03 13.5
1 3 -3 762.92 11.1
-1 3 3 749.42 10.8
0 -3 -3 5822.82 64.49
0 -3 3 5890.31 63.19
0 3 3 5719.13 64.19
0 3 -3 5717.63 63.09
1 -3 3 305.27 7.6
-1 -3 -3 315.67 6.3
-1 -3 -3 303.87 7.7
-1 3 -3 296.47 7.5
2 -3 3 1080.59 14.8
-2 -3 -3 1074.69 17.2
-2 -3 -3 1075.99 17.6
2 -3 3 1076.99 18.3
-2 -3 -3 1071.09 18.1
-2 3 -3 1092.29 18.5
2 3 3 1072.39 18.1
-2 3 -3 1080.99 20.5
2 3 3 1108.09 18.2
3 -3 3 50.49 4
-3 -3 -3 49.7 3.9
3 -3 3 64.79 3.6
-3 -3 -3 53.59 4.2
-3 -3 -3 51.09 3.6
-3 3 -3 65.49 6.4
3 3 3 57.69 4.6
3 3 3 50.69 3.9
-3 3 -3 48.8 4.5
4 -3 3 725.63 19.5
-4 -3 -3 718.83 15.1
-4 -3 -3 717.13 16.8
-4 -3 -3 710.53 17.2
4 -3 3 720.23 14.8
4 3 3 693.43 18.1
-4 3 -3 709.93 16.6
-5 -3 -3 551.84 13.9
-5 -3 -3 529.35 15.5
-5 3 -3 567.44 15.6
5 3 3 550.34 17.7
5 3 3 580.14 13.7
-6 -3 -3 91.19 7.2
-6 -3 -3 101.79 6.4
6 -3 3 81.89 9.1
-6 3 -3 108.99 7.4
6 3 3 115.39 9.3
7 -3 3 506.25 21.1
-7 -3 -3 491.55 15
7 3 3 500.75 20.5
-7 3 -3 498.05 16.7
8 3 3 207.58 15
-8 3 -3 252.57 12.7
8 -4 -3 41.5 8.1
7 -4 -3 218.38 13.8
7 4 -3 228.98 14.2
6 -4 -3 408.26 16.9
6 4 -3 461.85 17.8
5 -4 -3 198.58 10.5
5 4 -3 197.38 10.5
4 -4 -3 419.16 11.5
4 -4 -3 398.66 13.3
4 4 -3 421.36 13.7
-4 4 3 408.96 12.3
3 -4 -3 31.9 3.5
3 -4 -3 23.4 3.3
-3 -4 3 40.7 4.4
-3 4 3 31.8 3.5
3 4 -3 24.4 3.1
3 4 -3 27.2 3.6
2 -4 -3 4239.08 50.29
2 -4 -3 4120.59 50.59
2 4 -3 4116.89 48.5
-2 4 3 4131.49 49.4
2 4 -3 4040.3 52.09
1 -4 -3 14.3 2.1
-1 -4 3 20.8 1.6
1 4 -3 16.2 1.7
1 4 -3 18.6 1.4
-1 4 3 16.6 1.4
0 -4 -3 2304.97 30.6
0 -4 3 2393.26 29
0 4 -3 2330.37 28.9
0 4 3 2291.17 30.3
1 -4 3 49.99 3.3
-1 -4 -3 46.3 2
-1 -4 -3 48.9 3.3
-1 4 -3 37.3 2.9
1 4 3 45.7 2.2
-2 -4 -3 101.09 4.5
2 -4 3 95.89 3.2
-2 -4 -3 97.59 5.1
2 -4 3 100.99 5
-2 -4 -3 101.79 4.2
2 4 3 91.29 4.4
-2 4 -3 107.89 5.9
-2 4 -3 100.79 5.1
3 -4 3 91.49 5.4
-3 -4 -3 98.79 5.7
-3 -4 -3 97.99 4.8
3 -4 3 92.49 4.2
3 4 3 96.49 5.6
3 4 3 94.79 5.4
-3 4 -3 88.19 6.1
-3 4 -3 85.79 5.3
-4 -4 -3 18.3 3.3
4 -4 3 15.2 2.6
-4 -4 -3 13.1 3
-4 -4 -3 15.9 2.7
-4 4 -3 14.3 3.1
4 4 3 17.5 3.6
-5 -4 -3 6.3 2.1
-5 -4 -3 7.4 2.9
-5 4 -3 3.4 2.1
5 4 3 3.5 2.3
-6 -4 -3 256.77 11.8
-6 -4 -3 252.57 9.8
-6 4 -3 271.17 11.6
6 4 3 236.08 13
-7 -4 -3 197.48 9.3
7 4 3 207.28 13.4
-7 4 -3 206.28 11.1
-8 4 -3 18.2 4.7
8 4 3 16.8 5.8
7 -5 -3 24.5 6.2
7 5 -3 27.5 6.5
6 -5 -3 2.7 2.8
6 5 -3 2.4 2.9
5 -5 -3 3.1 2.4
5 5 -3 3.1 2.5
4 -5 -3 328.67 12
4 5 -3 330.17 12.1
-4 5 3 313.97 10.8
3 -5 -3 346.47 10.7
-3 -5 3 330.57 10.3
3 -5 -3 334.97 10
3 5 -3 346.67 9.8
3 5 -3 350.46 11.1
-3 5 3 352.06 10
2 -5 -3 125.19 5.2
-2 -5 3 117.39 4.9
2 -5 -3 122.29 5.6
-2 5 3 115.09 4.6
2 5 -3 127.99 5
2 5 -3 115.79 5.7
1 -5 -3 9667.93 105.79
-1 -5 3 9677.63 101.59
-1 -5 3 9551.94 101.49
1 5 -3 9699.83 101.39
1 5 -3 9607.84 101.19
0 -5 3 6879.41 75.59
0 -5 -3 6848.81 77.19
0 5 3 6842.81 76.79
0 5 -3 6724.93 75.19
1 -5 3 1055.89 17.7
-1 -5 -3 1028.1 18.1
1 5 3 1062.99 18
-1 5 -3 1032.8 17.6
-2 -5 -3 25.4 2.4
2 -5 3 23.4 1.8
-2 -5 -3 26.1 3.3
2 -5 3 25.7 3.2
-2 5 -3 33.6 4.2
2 5 3 25.9 2.9
-2 5 -3 26.7 3.2
2 5 3 29.1 3.5
3 -5 3 1352.66 19.6
-3 -5 -3 1313.47 23.8
-3 -5 -3 1384.26 21.9
3 -5 3 1321.97 24.4
-3 -5 -3 1403.56 22.5
-3 5 -3 1347.67 24.1
3 5 3 1302.97 24
3 5 3 1311.77 23.5
-3 5 -3 1360.06 26.9
-4 -5 -3 2321.87 36.8
4 -5 3 2276.57 31.9
-4 -5 -3 2252.57 35.5
-4 -5 -3 2269.27 32.9
4 5 3 2352.36 38.2
-4 5 -3 2326.37 36.9
-5 -5 -3 186.88 7.9
-5 -5 -3 206.78 10
5 5 3 182.28 10.1
-5 5 -3 190.68 9.3
-6 -5 -3 102.69 6.4
-6 -5 -3 94.49 8.7
6 5 3 103.79 10
-6 5 -3 102.19 7.6
-7 -5 -3 124.39 9.6
-7 -5 -3 126.89 7.5
-7 5 -3 136.39 9.6
7 5 3 145.29 11.5
-8 5 -3 65.49 8.3
8 5 3 56.69 10.3
7 -6 -3 474.55 20.2
7 6 -3 470.65 20.3
6 -6 -3 646.94 21.5
6 6 -3 667.03 21.9
5 -6 -3 499.45 17
5 6 -3 498.25 17.2
4 -6 -3 477.65 14.7
-4 6 3 465.15 13.5
4 6 -3 449.46 14.5
3 -6 -3 671.03 15.6
-3 -6 3 686.63 14.8
3 6 -3 645.94 16.2
-3 6 3 678.03 14.7
3 6 -3 673.83 14.7
2 -6 -3 1827.02 28.2
2 -6 -3 1749.32 26
-2 -6 3 1773.92 25.6
2 6 -3 1846.32 25.8
2 6 -3 1782.82 28.6
-2 6 3 1844.12 25.3
-1 -6 3 258.87 6.3
1 -6 -3 253.37 8.2
-1 -6 3 231.68 6.1
1 6 -3 258.77 6.2
0 -6 3 275.37 7.5
0 -6 -3 267.17 8.4
0 -6 3 264.77 5.2
0 6 -3 265.57 7.2
0 6 3 274.27 8.2
0 6 -3 279.57 5.2
-1 -6 -3 50.39 4.5
1 -6 3 48.9 3.7
-1 6 -3 47.8 3.5
1 6 3 52.09 3.7
-2 -6 -3 332.77 10.2
2 -6 3 332.97 10
-2 -6 -3 325.57 7.4
-2 6 -3 317.87 9.9
2 6 3 315.77 8.2
-2 6 -3 344.57 11.4
2 6 3 317.17 9.8
-3 -6 -3 44.5 4.7
-3 -6 -3 50.39 3.9
3 -6 3 50.19 3.2
-3 -6 -3 51.79 3.7
-3 6 -3 42.8 5.3
-3 6 -3 41.5 4.5
3 6 3 48.7 4.8
-4 -6 -3 4 1.9
4 -6 3 4.9 1.8
-4 -6 -3 3.9 2.6
-4 -6 -3 3.3 1.8
-4 6 -3 2.2 2.1
4 6 3 3.3 2.2
-5 -6 -3 147.99 8.9
-5 -6 -3 150.38 7.1
5 6 3 136.69 8.9
-5 6 -3 136.79 8.3
-6 -6 -3 222.18 11.7
-6 -6 -3 219.58 9.1
6 6 3 219.88 12.5
-6 6 -3 221.08 11.2
-7 -6 -3 534.75 19
7 6 3 501.25 20.7
-7 6 -3 523.05 18.2
7 -7 -3 3.2 3.9
7 7 -3 1.1 3.6
6 -7 -3 580.94 20.9
6 7 -3 660.73 22
5 -7 -3 141.09 9.4
5 7 -3 177.88 10.3
4 -7 -3 303.27 11.8
4 7 -3 281.47 11.7
-4 7 3 310.27 11
-3 -7 3 330.87 10.2
3 -7 -3 334.67 10.7
3 7 -3 352.06 11.8
-3 7 3 347.27 10.1
3 7 -3 335.07 10.2
-2 -7 3 984.4 14.1
2 -7 -3 971.9 19.3
-2 -7 3 954 17.1
-2 7 3 991.5 16.4
2 7 -3 989.7 17.1
2 7 -3 984.9 19.6
-1 -7 3 535.25 10.5
-1 -7 3 523.75 10.3
1 -7 -3 539.15 12.9
1 7 -3 533.45 12.8
1 7 -3 528.95 10.2
0 -7 3 801.32 11.9
0 -7 -3 809.02 16.5
0 -7 3 834.32 15.2
0 7 -3 809.52 14.9
0 7 3 814.72 16.2
0 7 -3 812.82 11.9
1 -7 3 67.79 4.5
-1 -7 -3 65.29 4.6
-1 7 -3 68.19 4.4
1 7 3 71.69 4.6
-2 -7 -3 -0.2 1.3
2 -7 3 0.2 0.7
-2 -7 -3 0 0.7
2 -7 3 -0.3 1.2
-2 7 -3 1.5 1.6
2 7 3 2.1 1.2
-2 7 -3 0.1 1.3
-3 -7 -3 41.7 3.4
-3 -7 -3 44.9 4.2
-3 -7 -3 53.39 5.5
3 7 3 45.2 4.5
-3 7 -3 46.5 4.9
-4 -7 -3 1661.83 26.6
-4 -7 -3 1660.83 30.9
4 -7 3 1653.13 25.2
-4 -7 -3 1739.63 28.3
-4 7 -3 1641.44 30.7
4 7 3 1634.34 30.1
-5 -7 -3 33.4 4.1
-5 -7 -3 27.9 5.1
-5 7 -3 26.6 4.4
5 7 3 29.3 5
-6 -7 -3 20.3 3.5
-6 -7 -3 17.5 4.6
6 7 3 15 4.6
-6 7 -3 21.4 4.6
-7 -7 -3 375.26 16.5
-7 7 -3 389.46 16.3
7 7 3 371.76 17.9
7 -8 -3 212.88 14
7 8 -3 220.28 14.5
6 -8 -3 128.49 12
6 8 -3 99.29 10
5 -8 -3 64.89 7.6
5 8 -3 55.29 7.4
4 -8 -3 24.6 4.4
-4 -8 3 20.1 3.7
-4 8 3 27.7 4.2
4 8 -3 23.2 4.1
-3 -8 3 2446.46 36.3
3 8 -3 2470.65 39.7
3 8 -3 2526.95 37.1
-3 8 3 2566.44 36.5
-2 -8 3 1689.63 22.5
-2 -8 3 1642.34 25.4
2 -8 -3 1678.53 28.1
-2 8 3 1701.93 24.3
2 8 -3 1681.73 28.5
2 8 -3 1670.03 25.3
1 -8 -3 130.89 6.5
-1 -8 3 127.59 5
-1 -8 3 134.89 5.3
1 8 -3 130.59 4.9
1 8 -3 148.19 6.7
0 -8 3 15 1.9
0 -8 -3 16.6 3
0 -8 3 12.6 2.3
0 8 -3 12.3 1.6
0 8 3 11.9 2.5
-1 -8 -3 5.9 1.9
1 -8 3 3.7 1.9
-1 8 -3 7.6 2
2 -8 3 485.15 9
-2 -8 -3 454.45 13.3
2 8 3 490.85 10.5
-2 8 -3 469.35 13.1
-2 8 -3 496.85 14.9
-3 -8 -3 12.8 2.2
-3 -8 -3 5.2 2.6
-3 8 -3 8.8 2.7
3 8 3 7.6 2.2
-4 -8 -3 28.3 4.8
4 -8 3 28.8 3.2
-4 -8 -3 22.2 3.3
-4 -8 -3 34.8 4.2
-4 8 -3 21.5 4.1
4 8 3 23.9 4.1
-5 -8 -3 51.99 6.5
-5 -8 -3 51.79 5
5 8 3 57.79 6.9
-5 8 -3 60.79 6.8
-6 -8 -3 149.49 7.7
-6 -8 -3 148.79 10.3
-6 8 -3 173.88 10.6
6 8 3 164.68 10.9
7 8 3 90.49 10.8
-7 8 -3 77.29 8.8
7 9 -3 8.1 4.6
6 9 -3 21.4 5.3
5 9 -3 0.3 2.4
-4 -9 3 7.4 2.6
-4 9 3 5.8 2.6
4 9 -3 6.8 2.7
-3 -9 3 361.46 11.3
3 -9 -3 343.67 12
3 9 -3 346.27 12.4
-3 9 3 363.36 10.6
2 -9 -3 381.96 12
-2 -9 3 400.26 10.7
-2 -9 3 377.76 8.8
2 9 -3 380.06 12
2 9 -3 386.56 10.4
-2 9 3 364.76 9.1
-1 -9 3 966.6 17.2
-1 -9 3 955.1 16.5
1 -9 -3 945.91 19.7
1 9 -3 969.3 19.5
1 9 -3 971.8 16.3
0 -9 3 81.89 5
0 -9 -3 76.79 5.3
0 -9 3 81.19 3.8
-1 -9 -3 193.28 8.4
1 -9 3 174.08 5.1
-1 9 -3 170.38 7.5
2 -9 3 45.7 2.9
-2 -9 -3 62.39 6.3
-2 9 -3 45.4 5
2 9 3 55.09 3.5
-3 -9 -3 268.57 11.2
3 -9 3 267.67 7.5
3 9 3 274.07 9.3
-3 9 -3 254.17 10.7
-4 -9 -3 1027.1 24.3
-4 -9 -3 1067.29 20.6
-4 -9 -3 1019.1 20.5
-4 9 -3 1049.99 24.3
4 9 3 1055.69 22.7
-5 -9 -3 20.5 4.5
-5 -9 -3 28.6 4
5 9 3 20.1 4.5
-5 9 -3 17.7 4.3
-6 -9 -3 37.7 6.4
-6 9 -3 28.3 5.6
6 9 3 25.6 5.6
7 9 3 282.27 15.7
6 10 -3 216.18 13.3
5 10 -3 1.8 2.5
4 -10 -3 473.25 15.2
-4 -10 3 474.05 14.7
4 10 -3 467.25 16
3 -10 -3 1.2 1.9
-3 -10 3 -0.2 1.8
3 10 -3 -0.9 1.7
-3 10 3 0.4 1.7
-2 -10 3 117.99 6.2
2 -10 -3 123.79 7.1
-2 -10 3 137.79 5.6
-2 10 3 119.69 5.1
2 10 -3 125.79 6.1
2 10 -3 117.09 6.9
-1 -10 3 10.7 2.4
-1 -10 3 9.6 2.2
1 -10 -3 15.5 3.2
1 10 -3 11.7 2.7
1 10 -3 11 2.1
0 -10 3 48.4 3.4
0 -10 -3 52.89 5.4
0 -10 3 53.29 5
1 -10 3 249.58 6.6
-1 -10 -3 244.58 10
-2 -10 -3 676.03 17.9
2 -10 3 682.03 12.3
-2 10 -3 703.03 17.7
-3 -10 -3 2.6 2.7
3 -10 3 5.6 1.7
-3 10 -3 7.3 2.8
3 10 3 4.2 2.1
-4 -10 -3 12 2.9
-4 -10 -3 17.6 4.4
4 -10 3 14.4 2.6
4 10 3 9.4 3.1
-4 10 -3 9.6 3.2
-5 -10 -3 120.19 9.3
-5 -10 -3 109.79 6.7
-5 10 -3 87.59 8.9
5 10 3 112.69 8.2
-6 -10 -3 59.29 8.2
6 10 3 50.99 7.4
-6 10 -3 63.99 8.1
6 11 -3 6.8 4
5 -11 -3 6.2 2.7
5 11 -3 2.1 2.7
4 -11 -3 56.49 6.6
-4 -11 3 58.49 6.4
4 11 -3 48.5 6.4
3 -11 -3 63.09 6.7
-3 -11 3 66.49 6.2
3 11 -3 88.09 6.9
2 -11 -3 33.3 4.6
-2 -11 3 29.3 3.4
-2 -11 3 25.5 3.7
2 11 -3 22.9 4
-1 -11 3 829.92 17.2
-1 -11 3 849.22 16.4
1 -11 -3 812.72 19.3
1 11 -3 813.02 15.7
1 11 -3 813.22 18.7
0 -11 -3 184.08 8.8
0 -11 3 168.58 6.2
1 -11 3 60.49 3.7
-1 -11 -3 71.79 6.7
-2 -11 -3 31.1 5.1
2 -11 3 30.8 3
-3 -11 -3 161.88 9.6
3 -11 3 130.09 5.5
-3 11 -3 133.59 8.5
3 11 3 138.79 6.7
-4 -11 -3 880.51 23.4
-4 -11 -3 856.21 19
-4 11 -3 860.71 23
4 11 3 807.62 19.7
-5 -11 -3 43.9 6.9
-5 11 -3 50.19 7.1
6 -12 -3 1.5 2.7
6 12 -3 4.4 4.2
5 -12 -3 4.3 2.7
5 12 -3 3.8 2.8
-4 -12 3 1.2 2.5
4 -12 -3 -0.5 1.9
4 12 -3 0.5 2.5
-3 -12 3 954.5 21.3
3 -12 -3 982.3 23
3 12 -3 938.91 23
-2 -12 3 487.75 13.3
2 -12 -3 489.55 15.1
2 12 -3 462.65 14.7
1 -12 -3 7.6 2.6
-1 -12 3 4.1 2.2
1 12 -3 6 2.5
0 -12 -3 181.48 9.2
0 -12 3 194.18 7
1 -12 3 19.1 2.7
-1 -12 -3 20 3.8
-2 -12 -3 383.26 14.2
2 -12 3 380.56 9.3
-3 -12 -3 67.69 7.2
-4 -12 -3 3.2 2.4
-4 -12 -3 8.7 3.9
-5 -12 -3 28.7 5.9
5 -13 -3 52.59 7.2
5 13 -3 47.5 7.4
4 -13 -3 100.19 9
-4 -13 3 92.19 8.4
4 13 -3 101.79 9.4
3 -13 -3 155.38 9.2
-3 -13 3 140.89 8.4
3 13 -3 134.79 8.9
-2 -13 3 25.7 4
2 -13 -3 21.4 4.2
2 13 -3 28.6 4.6
-1 -13 3 514.05 13.2
1 -13 -3 516.35 16.1
1 13 -3 535.65 15.5
0 -13 -3 313.77 12.5
0 -13 3 309.37 9.3
-1 -13 -3 7.3 3
-2 -13 -3 41.6 5.8
-3 -13 -3 2 2.9
-4 -13 -3 150.38 10.7
5 -14 -3 100.99 10
4 -14 -3 4.9 3.1
-4 -14 3 6.6 3.1
4 14 -3 5.6 3.1
-3 -14 3 247.48 11
3 -14 -3 227.98 11.4
3 14 -3 237.28 11.6
2 -14 -3 141.89 9
-2 -14 3 152.88 8.7
2 14 -3 145.79 8.8
1 -14 -3 170.58 9.6
1 14 -3 190.58 9.4
0 -14 -3 11.8 3.6
0 14 -3 10.6 3.2
-1 -14 -3 55.89 6.9
-2 -14 -3 9.7 3.9
-3 -14 -3 194.68 11.6
-4 -14 -3 2.6 3.9
3 -15 -3 10.4 3.6
2 -15 -3 1.2 2.5
1 -15 -3 172.58 10.1
0 -15 -3 62.39 7.3
0 15 -3 55.39 6.4
-1 -15 -3 10.6 4
-2 -15 -3 24.3 5.3
-3 -15 -3 311.57 14.9
2 -16 -3 213.78 11.6
1 -16 -3 0.8 2.7
0 -16 -3 -1.2 2.4
-1 -16 -3 10.2 3.8
-2 -16 -3 -2 2.9
0 -17 -3 173.38 11.5
-1 -17 -3 2.5 3.7
8 0 -4 5.8 4.1
7 0 -4 90.99 10.4
6 0 -4 265.97 13.5
5 0 -4 664.83 19.3
5 0 -4 652.43 12.9
-4 0 4 551.34 14.6
4 0 -4 557.04 10.7
4 0 -4 543.95 15.6
-3 0 4 36.3 3.9
3 0 -4 29.7 3.6
3 0 -4 39.1 2.3
-2 0 4 1468.65 22.1
2 0 -4 1458.85 22.8
1 0 -4 3469.65 41.9
0 0 -4 7238.98 79.29
0 0 -4 7220.48 76.99
1 0 4 7467.65 78.39
-1 0 -4 7379.16 78.39
-1 0 -4 7288.97 80.99
1 0 4 7272.87 80.69
2 0 4 1433.16 21.4
-2 0 -4 1386.16 21.6
-2 0 -4 1400.66 20
2 0 4 1406.76 20
-2 0 -4 1392.96 23.4
3 0 4 1447.06 22.9
-3 0 -4 1370.86 25.5
-3 0 -4 1423.76 22.1
-3 0 -4 1423.56 23.4
3 0 4 1383.66 25.8
3 0 4 1428.06 22
-4 0 -4 -0.1 1.4
4 0 4 0.8 1.8
-4 0 -4 -0.3 1.5
4 0 4 0.5 1.3
4 0 4 0.7 1.5
-5 0 -4 227.98 9.3
-5 0 -4 231.78 9.6
5 0 4 216.68 11.5
6 0 4 959.4 27.4
-6 0 -4 1054.59 23.1
-7 0 -4 8.2 3.2
7 0 4 5.6 3.9
-8 0 -4 9.6 3.7
8 -1 -4 46.9 8.4
7 -1 -4 419.36 18.8
7 1 -4 445.56 19.3
6 -1 -4 333.47 15
6 -1 -4 287.47 9.5
6 1 -4 322.97 14.8
5 -1 -4 1 1.8
5 -1 -4 1.8 1.3
5 1 -4 2.6 1.1
5 1 -4 2 2.2
4 -1 -4 111.49 4.8
4 -1 -4 103.59 6.7
4 1 -4 103.29 3.8
4 1 -4 114.29 7
-4 1 4 111.09 6.3
3 -1 -4 90.09 3.9
3 -1 -4 93.69 5.5
-3 -1 4 90.79 5.1
3 1 -4 91.09 3
3 1 -4 94.89 5.6
-3 1 4 95.29 5.1
2 -1 -4 372.86 9.2
-2 -1 4 364.76 9.2
2 1 -4 358.96 9.4
-2 1 4 361.16 8.8
1 -1 -4 32.4 2.2
1 1 -4 35.2 1.9
1 1 -4 31.2 2.5
0 -1 4 918.41 13.8
0 -1 -4 933.61 14.2
0 1 -4 946.61 14
0 1 -4 935.11 12.6
-1 -1 -4 27.5 2.8
1 -1 4 29.1 1.8
-1 -1 -4 28.4 2.2
1 -1 4 33.1 2.5
-1 1 -4 27.2 1.8
-1 1 -4 30.7 2.9
1 1 4 29.7 2.2
2 -1 4 690.33 13.4
-2 -1 -4 699.03 14.5
2 -1 4 691.73 11.7
-2 -1 -4 653.83 13.2
-2 -1 -4 696.83 12.9
-2 1 -4 691.63 13.8
-2 1 -4 702.93 15.4
2 1 4 697.93 12.8
2 1 4 691.83 13.2
-2 1 -4 669.13 11.6
-3 -1 -4 4500.35 55.69
-3 -1 -4 4586.64 59.39
3 -1 4 4543.95 53.29
3 -1 4 4459.95 55.49
-3 -1 -4 4446.65 54.69
-3 1 -4 4518.95 60.59
3 1 4 4452.35 54.99
-3 1 -4 4421.16 56.09
3 1 4 4610.14 54.89
-3 1 -4 4601.84 53.49
3 1 4 4372.06 59.59
4 -1 4 1565.14 25.1
-4 -1 -4 1532.75 26.1
-4 -1 -4 1570.04 29.4
4 -1 4 1569.04 30.8
-4 -1 -4 1559.34 26.3
4 1 4 1573.04 25.7
4 1 4 1512.95 29.9
4 1 4 1519.95 25.7
-4 1 -4 1599.94 25.2
-4 1 -4 1536.55 26.8
-5 -1 -4 80.89 5.9
-5 -1 -4 78.19 5.9
5 -1 4 79.49 8.8
-5 1 -4 77.79 5.9
5 1 4 73.99 8.5
-6 -1 -4 206.78 9.5
6 1 4 209.28 12.3
-6 1 -4 205.88 10
-7 -1 -4 273.07 11.9
7 -1 4 281.67 15.8
7 1 4 284.87 15.7
-7 1 -4 305.27 12.9
-8 -1 -4 325.27 13.7
-8 1 -4 329.07 14.2
8 -2 -4 7.8 4.3
7 -2 -4 174.58 12.5
7 2 -4 172.98 12.6
6 -2 -4 1183.58 29.8
6 2 -4 1208.18 30.1
5 -2 -4 248.28 8.4
5 -2 -4 233.58 11.2
5 2 -4 257.17 11.8
4 -2 -4 13 2.2
4 -2 -4 10.9 2.8
4 2 -4 13.4 3.2
-4 2 4 23.9 3.5
3 -2 -4 4072.69 53.89
-3 -2 4 4140.89 53.49
3 -2 -4 4188.48 49.4
-3 2 4 4097.19 52.39
3 2 -4 4119.39 50.79
3 2 -4 4113.79 54.69
2 -2 -4 1738.83 25.2
-2 -2 4 1756.82 26
-2 2 4 1703.13 24.3
2 2 -4 1747.93 26.6
1 -2 -4 548.55 9.7
1 2 -4 565.74 8.8
1 2 -4 568.94 11.6
0 -2 4 678.63 11.1
0 -2 -4 686.23 12.1
0 2 -4 686.23 9.1
0 2 -4 668.03 11.2
0 2 4 671.73 11.9
1 -2 4 800.52 13.8
-1 -2 -4 801.22 14
1 -2 4 799.02 10.6
-1 -2 -4 833.22 13.6
-1 -2 -4 805.92 13.8
-1 2 -4 798.72 14.1
1 2 4 798.32 13.7
-1 2 -4 822.62 10.6
-2 -2 -4 1201.68 20.2
2 -2 4 1187.88 16.5
2 -2 4 1199.68 19.7
-2 -2 -4 1214.88 19.5
-2 -2 -4 1214.88 19.5
-2 2 -4 1201.88 20.1
2 2 4 1245.78 19.5
-2 2 -4 1228.28 16.7
3 -2 4 19.7 3.1
-3 -2 -4 17.9 2.8
-3 -2 -4 16 2.7
-3 -2 -4 24.1 3.6
3 2 4 12.4 2.7
-3 2 -4 32.3 2.9
3 2 4 12.4 2.3
-3 2 -4 14.8 3
3 2 4 14.9 2.5
-3 2 -4 17.3 2.9
-4 -2 -4 143.49 7.2
4 -2 4 128.49 6
-4 -2 -4 129.89 7.4
-4 -2 -4 129.29 6.5
-4 2 -4 132.29 7
4 2 4 136.59 6.4
4 2 4 149.39 8.4
-5 -2 -4 238.98 10.1
-5 -2 -4 225.98 9.2
5 -2 4 224.58 11.8
5 2 4 238.58 11.9
-5 2 -4 229.38 9.9
6 -2 4 2.8 2.7
-6 -2 -4 4.7 2.4
-6 -2 -4 2.2 1.9
-6 2 -4 -0.1 1.6
6 2 4 -0.6 2.2
-7 -2 -4 24 4.3
7 -2 4 28.4 6.8
-7 2 -4 19.3 4.3
7 2 4 16.4 5.1
-8 -2 -4 50.39 6.4
-8 2 -4 42.5 6.3
8 2 4 45.9 10
8 -3 -4 10.3 5.1
7 -3 -4 295.77 15.8
7 3 -4 301.47 16
6 -3 -4 104.89 10
6 3 -4 122.49 9.6
5 -3 -4 122.69 8.3
5 3 -4 126.79 8.6
4 -3 -4 740.43 15.3
4 -3 -4 725.63 18.3
4 3 -4 733.43 18.5
-4 3 4 717.23 16.8
-3 -3 4 1058.29 20.1
3 -3 -4 1077.99 20.4
3 -3 -4 1059.19 18.1
-3 3 4 1050.99 19.1
3 3 -4 1044 20.9
3 3 -4 1057.19 18.7
2 -3 -4 1251.07 19.7
2 3 -4 1219.88 18.6
-2 3 4 1237.08 18.9
2 3 -4 1256.47 21.5
1 -3 -4 616.24 10.1
-1 -3 4 622.54 9.3
1 3 -4 611.24 9.4
1 3 -4 618.04 9.8
0 -3 4 68.39 3.1
0 3 -4 58.99 3.1
0 3 4 60.89 3.4
-1 -3 -4 641.84 10.9
-1 -3 -4 639.24 12.6
1 -3 4 660.03 12.4
-1 3 -4 636.34 12.5
1 3 4 627.64 12.4
-2 -3 -4 270.97 8
-2 -3 -4 258.37 8
2 -3 4 272.97 5.8
-2 -3 -4 292.47 8
-2 3 -4 278.07 9.7
-2 3 -4 267.87 8.4
2 3 4 290.97 8.4
2 3 4 260.47 7.9
-3 -3 -4 523.25 12.9
-3 -3 -4 520.85 13
-3 -3 -4 509.55 12.1
3 -3 4 518.75 10.4
3 -3 4 515.55 12.9
-3 3 -4 513.85 13.1
-3 3 -4 510.65 14.9
3 3 4 536.35 12.9
3 3 4 503.05 13.6
-4 -3 -4 801.62 18.1
-4 -3 -4 784.72 18.6
-4 -3 -4 805.32 17.1
4 -3 4 835.72 16
4 3 4 819.42 20
-4 3 -4 819.62 18.6
-5 -3 -4 408.96 12.4
-5 -3 -4 412.56 13.7
-5 3 -4 421.16 13.7
5 3 4 374.36 14.7
-6 -3 -4 21 4.4
-6 -3 -4 21.4 4
6 3 4 24.8 5.5
-6 3 -4 21.6 4.3
-7 -3 -4 262.37 11.2
-7 3 -4 265.87 12.6
7 3 4 255.77 15.1
-8 -3 -4 717.33 21.3
8 3 4 725.73 29.7
-8 3 -4 730.93 22.2
8 -4 -4 69.29 10.5
7 -4 -4 57.29 8.5
7 4 -4 44.5 8
6 -4 -4 530.85 19.2
6 4 -4 547.55 19.7
5 -4 -4 260.97 11.9
5 4 -4 239.88 11.7
4 -4 -4 3.8 2.2
4 -4 -4 2.9 1.7
-4 4 4 2.2 1.6
4 4 -4 -1.4 1.3
3 -4 -4 1866.21 27.6
3 -4 -4 1772.62 28.8
3 4 -4 1765.92 30.1
3 4 -4 1780.12 27.1
-3 4 4 1791.52 27.4
2 -4 -4 97.89 4.5
2 4 -4 96.19 4.4
-2 4 4 102.99 4.2
2 4 -4 99.49 5.4
-1 -4 4 430.06 7.6
1 -4 -4 443.16 7.8
1 -4 -4 436.26 10.6
1 4 -4 425.26 7.6
1 4 -4 436.66 7.9
-1 4 4 422.56 7.2
0 -4 -4 236.28 7.3
0 -4 4 249.18 6.5
0 4 4 245.58 7.3
0 4 -4 230.48 6.3
1 -4 4 1303.27 20.4
-1 -4 -4 1318.57 17.3
-1 -4 -4 1283.47 20.9
1 4 4 1308.67 20.7
-1 4 -4 1291.97 20.5
-2 -4 -4 511.75 12.2
2 -4 4 495.95 8
-2 -4 -4 521.55 11.6
-2 -4 -4 499.15 10.6
2 -4 4 493.95 12.1
2 4 4 505.25 11.1
-2 4 -4 491.45 12.2
2 4 4 508.55 12.1
-3 -4 -4 782.12 16.2
3 -4 4 815.42 13.5
3 -4 4 774.12 17
-3 -4 -4 776.92 17
-3 -4 -4 780.52 15.7
-3 4 -4 807.52 19.7
3 4 4 790.02 17.2
3 4 4 802.72 17
-3 4 -4 758.32 17.1
-4 -4 -4 122.39 6.2
-4 -4 -4 112.29 6.9
-4 -4 -4 114.39 6.7
4 -4 4 118.19 5.7
-4 4 -4 116.59 6.9
4 4 4 105.09 7.1
-5 -4 -4 1.2 1.7
-5 -4 -4 -0.3 1.8
-5 4 -4 0.8 1.9
5 4 4 1.4 1.9
-6 -4 -4 149.09 8
-6 -4 -4 154.78 9.3
6 4 4 137.29 10
-6 4 -4 140.59 8.8
-7 -4 -4 41.4 5.5
-7 -4 -4 59.29 7.2
7 4 4 51.89 8.5
-7 4 -4 47.1 6.3
-8 4 -4 32.6 6.1
7 -5 -4 381.06 18.1
7 5 -4 381.86 18.3
6 -5 -4 11 3.8
6 5 -4 10.1 4
5 -5 -4 27.4 4.9
5 5 -4 30.5 5.4
4 -5 -4 613.84 16.8
-4 5 4 642.44 15.7
4 5 -4 626.94 17.5
3 -5 -4 120.49 6
3 -5 -4 147.59 6.8
3 5 -4 128.09 6
3 5 -4 116.49 6.8
-3 5 4 139.09 6
2 -5 -4 1221.48 19.5
2 5 -4 1212.78 22.1
-2 5 4 1216.28 18.4
2 5 -4 1249.38 19
-1 -5 4 2876.11 33.9
1 -5 -4 2925.81 38.8
1 5 -4 2912.51 33.6
1 5 -4 2834.52 33.7
0 -5 4 2584.14 32.7
0 -5 -4 2561.74 34.9
0 5 4 2533.65 34.5
0 5 -4 2538.35 32.6
1 -5 4 853.81 15.9
-1 -5 -4 862.01 16.6
-1 5 -4 845.72 15.9
1 5 4 843.42 16.2
2 -5 4 110.59 5.7
-2 -5 -4 106.69 4.3
-2 -5 -4 109.49 5.8
2 5 4 112.59 5.7
2 5 4 104.59 4.7
-2 5 -4 102.49 5.5
3 -5 4 553.64 10.4
-3 -5 -4 561.34 12.9
-3 -5 -4 569.84 13.2
-3 -5 -4 533.15 14.1
-3 5 -4 523.35 14.2
3 5 4 557.54 13.8
-4 -5 -4 18.7 3.1
4 -5 4 17.7 2.8
-4 -5 -4 25.1 4.2
-4 -5 -4 17.9 3.4
4 5 4 28.5 4.4
-4 5 -4 21.9 3.7
-5 -5 -4 1.5 1.8
5 -5 4 -1.4 1.9
-5 -5 -4 2.8 2.3
5 5 4 14.6 3.8
-5 5 -4 1.4 2
-6 -5 -4 29.7 5.6
-6 -5 -4 28.4 4.4
6 5 4 34.8 6.1
-6 5 -4 29.7 5
-7 -5 -4 1.4 3
-7 -5 -4 6.1 2.8
-7 5 -4 -0.3 2.5
7 5 4 -0.2 3.1
7 -6 -4 179.38 12.9
7 6 -4 184.18 13.3
6 -6 -4 426.76 17.4
6 6 -4 439.16 17.9
5 -6 -4 141.99 9.2
5 6 -4 136.29 9.3
4 -6 -4 588.94 16.5
-4 6 4 575.44 14.9
4 6 -4 593.64 17.3
3 -6 -4 1425.46 25.4
3 6 -4 1520.85 27.8
-3 6 4 1514.25 24.1
3 6 -4 1508.15 24.4
2 -6 -4 101.09 4.6
2 6 -4 104.09 4.7
-2 6 4 101.99 4.1
2 6 -4 90.89 5.6
1 -6 -4 2237.18 33
-1 -6 4 2309.07 28.7
1 6 -4 2270.97 28.3
1 6 -4 2302.57 27.9
0 -6 4 376.16 9.2
0 -6 -4 381.06 10.7
0 6 -4 383.46 9.1
0 6 4 378.36 10.3
-1 -6 -4 1103.99 20.6
1 -6 4 1158.28 20
-1 6 -4 1152.58 19.9
1 6 4 1129.99 20.3
-2 -6 -4 18.2 3.1
2 -6 4 10.8 2.3
-2 -6 -4 11.1 1.6
2 6 4 17.2 2.9
2 6 4 14.5 2.1
-2 6 -4 11 2.3
-3 -6 -4 782.12 15.4
-3 -6 -4 781.52 16.3
3 -6 4 777.52 12.9
-3 -6 -4 781.82 18.1
-3 6 -4 794.42 18.2
3 6 4 790.42 16.8
-4 -6 -4 59.69 5.6
4 -6 4 53.69 4
-4 -6 -4 50.99 5.6
-4 -6 -4 62.19 4.9
-4 6 -4 72.59 7.2
4 6 4 56.29 6.1
-5 -6 -4 1.8 1.9
5 -6 4 0 1.9
-5 -6 -4 0.6 2.4
-5 6 -4 -0.9 1.5
5 6 4 0 2.2
-6 -6 -4 102.39 6.8
-6 -6 -4 84.79 8.2
-6 6 -4 84.89 8.7
6 6 4 86.09 9.3
-7 -6 -4 262.97 11.1
-7 -6 -4 228.38 12.8
7 6 4 235.38 14.2
-7 6 -4 241.18 13.1
7 -7 -4 267.57 15.6
7 7 -4 319.47 17.1
6 -7 -4 73.49 8.8
6 7 -4 97.99 10.7
5 -7 -4 68.29 7.6
5 7 -4 73.59 8.2
4 -7 -4 22.6 4
-4 7 4 19.8 3.5
4 7 -4 20.6 4.3
3 -7 -4 67.39 5.1
3 7 -4 81.89 5.2
-3 7 4 68.29 4.5
3 7 -4 81.39 6
2 -7 -4 761.62 17.2
2 -7 -4 779.32 14.1
-2 7 4 766.52 13
2 7 -4 749.42 17.4
2 7 -4 793.22 14.6
1 -7 -4 454.25 12.4
-1 -7 4 468.95 9.1
-1 -7 4 473.95 9.8
1 7 -4 452.95 9.5
1 7 -4 497.05 9.3
0 -7 4 341.07 9.1
0 -7 -4 301.37 9.9
0 7 -4 325.17 8.7
0 7 4 315.37 9.8
-1 -7 -4 667.43 15.7
1 -7 4 719.13 15.3
1 7 4 682.63 15.4
-1 7 -4 688.73 14.8
-2 -7 -4 250.67 9.5
-2 -7 -4 259.37 6.1
2 7 4 253.07 6.9
-2 7 -4 250.07 9.3
-3 -7 -4 1346.17 26
3 -7 4 1298.27 18.5
-3 -7 -4 1354.96 23.5
-3 -7 -4 1310.97 21.2
3 7 4 1316.27 23.3
-3 7 -4 1330.47 25.8
-4 -7 -4 203.48 10.1
-4 -7 -4 207.68 8.4
4 -7 4 191.18 6.8
-4 -7 -4 200.08 8.2
4 7 4 198.08 9.3
-4 7 -4 192.68 9.5
-5 -7 -4 21.6 3.7
-5 -7 -4 17.5 4.2
5 7 4 20.6 4.4
-5 7 -4 18.1 4.1
-6 -7 -4 128.29 7.6
-6 -7 -4 136.69 9.9
6 7 4 108.79 10.4
-6 7 -4 139.09 9.5
-7 -7 -4 114.09 10.9
7 7 4 109.09 11.4
-7 7 -4 126.59 10
7 -8 -4 287.97 16.1
7 8 -4 285.27 16.5
6 -8 -4 615.44 21.1
6 8 -4 621.94 22.1
5 -8 -4 229.18 11.5
5 8 -4 209.08 11.6
4 -8 -4 25.9 4.5
-4 8 4 21.9 3.6
4 8 -4 28.4 4.9
3 -8 -4 1024.3 22
3 -8 -4 1031.3 20
3 8 -4 1000.3 19.5
-3 8 4 1043.3 18.6
3 8 -4 996.2 22.4
-2 -8 4 356.66 9.4
2 -8 -4 362.46 11.8
-2 -8 4 376.56 7.8
2 8 -4 353.96 11.7
2 8 -4 366.66 9.6
-2 8 4 346.27 7.9
-1 -8 4 2.2 1.3
-1 -8 4 4.4 1.4
1 -8 -4 4 1.8
1 8 -4 5.3 1.3
0 -8 4 130.79 5.9
0 -8 -4 138.59 6.9
0 8 -4 134.99 5.8
1 -8 4 419.46 11.7
-1 -8 -4 404.46 12.3
-1 8 -4 395.26 11.3
-2 -8 -4 -0.8 1.6
-2 8 -4 -0.5 1.2
-3 -8 -4 526.75 13.6
-3 -8 -4 517.15 15.5
3 -8 4 515.65 9.8
-3 -8 -4 519.15 11.3
3 8 4 513.05 12.9
-3 8 -4 538.95 15.5
-4 -8 -4 98.59 5.9
-4 -8 -4 108.89 7.9
4 -8 4 110.69 5.2
-4 -8 -4 107.29 6.3
4 8 4 108.39 7
-4 8 -4 96.09 7.3
-5 -8 -4 58.59 6.9
-5 -8 -4 76.19 5.8
-5 8 -4 73.39 7.7
5 8 4 82.89 8.1
-6 -8 -4 148.89 8.1
-6 -8 -4 149.09 10.6
-6 8 -4 145.09 9.9
6 8 4 143.39 10.3
7 8 4 26 6.1
7 -9 -4 226.88 14.2
6 -9 -4 120.19 11.3
6 9 -4 134.49 10.8
5 -9 -4 13 3.9
5 9 -4 9.2 3.7
-4 9 4 330.07 11.1
4 9 -4 344.57 13.7
3 -9 -4 8.5 2.7
3 9 -4 3.8 2.3
-3 9 4 6.4 2
2 -9 -4 35.6 4.7
-2 -9 4 42.2 4
-2 -9 4 38.8 3
-2 9 4 36.4 2.7
2 9 -4 43.6 4.1
2 9 -4 41.6 4.9
-1 -9 4 122.39 5.6
1 -9 -4 124.39 7
-1 -9 4 132.69 5.1
1 9 -4 125.89 6.9
1 9 -4 132.39 4.9
0 -9 4 180.18 7.4
0 -9 4 178.38 4.9
0 -9 -4 171.08 8.2
0 9 -4 169.38 6.9
-1 -9 -4 158.38 7.9
-1 9 -4 160.98 7.5
-2 -9 -4 117.59 7.3
-2 9 -4 102.19 6.6
-3 -9 -4 913.11 16.1
-3 -9 -4 955.4 22.6
3 9 4 949.4 18.3
-3 9 -4 945.41 21.9
-4 -9 -4 279.67 10.3
-4 -9 -4 280.87 12.5
4 9 4 273.37 10.8
-4 9 -4 272.97 12
-5 -9 -4 153.78 8
-5 -9 -4 145.79 9.9
-5 9 -4 154.58 9.9
5 9 4 124.49 8.7
-6 -9 -4 100.59 9.9
-6 9 -4 114.19 10.3
6 9 4 106.99 10.5
7 9 4 148.49 11.5
6 10 -4 64.09 8.9
5 10 -4 18.3 4.8
4 -10 -4 11.3 3.3
4 10 -4 21 4.6
3 -10 -4 104.79 7.3
-3 -10 4 107.59 6.3
3 10 -4 99.39 7.2
-2 -10 4 75.29 4.2
2 -10 -4 72.69 6.7
-2 -10 4 75.79 4.9
2 10 -4 77.39 4.8
2 10 -4 84.59 6.2
1 -10 -4 -0.3 1.5
-1 -10 4 -2.1 1.3
-1 -10 4 -1.1 1.1
1 10 -4 0.7 1.1
1 10 -4 1.5 1.7
0 -10 -4 208.98 9.4
-1 -10 -4 1521.95 28.7
-1 10 -4 1517.45 27
-2 -10 -4 1978.8 35.1
-2 10 -4 2060.69 34.7
-3 -10 -4 -1.1 2.1
-3 10 -4 -0.5 1.8
3 10 4 1.1 1.8
-4 -10 -4 13.7 4.2
-4 -10 -4 17.1 3.4
4 10 4 13.1 3.4
-4 10 -4 9.7 3.3
-5 -10 -4 2 2.4
-5 -10 -4 4.5 3.4
-5 10 -4 6.5 3.3
5 10 4 6.6 3.4
-6 -10 -4 52.19 8.4
6 11 -4 31.4 6.5
5 -11 -4 3.5 2.6
5 11 -4 1.1 2.9
4 -11 -4 114.29 8.1
4 11 -4 108.49 8.5
3 -11 -4 36.2 5.2
-3 -11 4 37.8 4.6
3 11 -4 40.8 5.9
-2 -11 4 140.69 6.6
2 -11 -4 123.09 7.8
2 11 -4 138.09 8.1
1 -11 -4 63.49 6.4
-1 -11 4 69.39 5
-1 -11 4 71.19 4.4
1 11 -4 64.89 6.1
0 -11 -4 335.97 12.4
0 -11 4 334.67 7.9
-1 -11 -4 24 4.1
-2 -11 -4 432.56 14.8
-2 11 -4 403.36 13.8
-3 -11 -4 423.66 15.5
-3 11 -4 464.75 15.8
-4 -11 -4 358.16 12.4
-4 -11 -4 345.27 14.9
-4 11 -4 382.06 15.1
-5 -11 -4 3.8 2.7
-5 -11 -4 11.3 4.3
-5 11 -4 6.7 3.5
6 -12 -4 289.57 16.4
5 -12 -4 188.58 11.1
5 12 -4 163.98 11.3
4 -12 -4 52.59 6.7
4 12 -4 51.49 6.9
-3 -12 4 292.17 10.8
3 -12 -4 298.97 12.6
3 12 -4 305.47 13.2
-2 -12 4 336.37 10.5
2 -12 -4 326.37 12.9
2 12 -4 347.97 13
-1 -12 4 4.2 1.8
1 -12 -4 6.6 2.7
1 12 -4 1 1.9
0 -12 4 141.59 5.4
0 -12 -4 151.58 8.7
-1 -12 -4 205.18 10.4
-2 -12 -4 18.7 4.4
-3 -12 -4 220.38 11.7
-3 12 -4 223.88 11.3
-4 -12 -4 33.2 6
-4 -12 -4 26.4 4.4
-4 12 -4 24.7 5.1
-5 -12 -4 53.79 8.2
5 -13 -4 14.3 4.6
5 13 -4 5.9 3.5
4 -13 -4 7.5 3.4
4 13 -4 11.6 4.1
-3 -13 4 46.6 5.4
3 -13 -4 40.4 6
3 13 -4 39.8 6.3
-2 -13 4 206.38 8.5
2 -13 -4 193.58 10.4
2 13 -4 203.68 10.3
1 -13 -4 26.5 4.7
1 13 -4 29.1 4.7
0 -13 -4 52.39 6.4
-1 -13 -4 86.19 8
-2 -13 -4 43.7 6.2
-3 -13 -4 607.84 20
-4 -13 -4 38.6 5.4
-4 -13 -4 46 7.2
5 14 -4 2.6 3.5
4 -14 -4 31.8 5.8
4 14 -4 45 7.1
3 -14 -4 484.55 17.2
3 14 -4 520.95 17.9
2 -14 -4 53.89 6.9
2 14 -4 61.49 7.2
1 -14 -4 103.29 8
1 14 -4 110.99 7.8
0 -14 -4 252.07 12.2
0 14 -4 296.17 12.1
-1 -14 -4 188.68 10.8
-2 -14 -4 115.49 9.1
-3 -14 -4 150.48 10.7
4 -15 -4 78.39 9.1
3 -15 -4 34.1 5.9
2 -15 -4 155.08 10.2
2 15 -4 153.78 9.6
1 -15 -4 254.67 12.6
1 15 -4 260.37 11.8
0 -15 -4 93.99 9.1
0 15 -4 105.49 7.8
-1 -15 -4 101.39 9.4
-2 -15 -4 10.8 4.2
2 -16 -4 15.7 4.5
1 -16 -4 1.5 2.8
0 -16 -4 3.2 3
-1 -16 -4 136.19 10.2
7 0 -5 376.26 17.8
6 0 -5 38.6 6.4
5 0 -5 76.99 8
5 0 -5 76.79 4.1
4 0 -5 36.9 4.9
4 0 -5 32.1 2.8
-3 0 5 500.35 12.6
3 0 -5 515.15 9.6
3 0 -5 511.65 13.4
2 0 -5 23.9 3
-2 0 5 18.4 2.5
1 0 -5 229.78 6.7
0 0 -5 578.44 10.3
0 0 -5 593.14 11.2
-1 0 -5 2869.31 34.5
1 0 5 2889.11 34.5
-1 0 -5 2899.11 36.9
1 0 5 2861.31 36.5
-2 0 -5 2199.28 29.1
-2 0 -5 2193.38 31.5
-2 0 -5 2275.17 33.9
2 0 5 2191.08 31
2 0 5 2243.58 29.2
3 0 5 100.19 5
-3 0 -5 85.59 5.3
3 0 5 100.19 5.3
-3 0 -5 102.19 5.1
-3 0 -5 101.49 6.3
-4 0 -5 26.7 3.6
4 0 5 33.1 3.8
-4 0 -5 28.3 4
-5 0 -5 914.41 20
5 0 5 913.81 24.4
-5 0 -5 899.01 20.8
6 0 5 90.89 9.4
-6 0 -5 111.89 7.5
7 0 5 648.24 24.1
-7 0 -5 680.73 19.9
-8 0 -5 18.2 4.7
7 -1 -5 827.62 26.7
7 1 -5 853.81 27.3
6 -1 -5 83.79 8.9
6 1 -5 83.99 9.2
5 -1 -5 41.6 3.9
5 -1 -5 33.2 5.2
5 1 -5 35.4 5.7
5 1 -5 36.9 2.7
4 -1 -5 17 2.3
4 -1 -5 18.7 3.5
4 1 -5 21.7 3.8
4 1 -5 15.6 1.8
3 -1 -5 1715.03 28.2
3 -1 -5 1713.93 23.9
-3 -1 5 1750.22 27.9
3 1 -5 1698.73 28.7
3 1 -5 1739.23 21.7
-3 1 5 1706.03 27.1
2 -1 -5 23.8 3.1
2 1 -5 26.8 3.1
-2 1 5 25.6 2.8
1 -1 -5 791.62 13.6
1 1 -5 794.02 12.5
1 1 -5 779.62 14.5
0 -1 -5 21.3 2.4
0 -1 5 14.1 2
0 1 -5 12.6 2
0 1 -5 18.3 1.9
-1 -1 -5 384.56 8.7
-1 -1 -5 392.06 9.5
1 -1 5 380.76 7.4
-1 1 -5 387.16 7.5
-1 1 -5 393.86 9.5
1 1 5 398.16 8.7
-2 -1 -5 1289.17 22.6
2 -1 5 1307.47 18.8
-2 -1 -5 1308.17 21.5
-2 -1 -5 1305.87 20.4
2 1 5 1325.77 20.3
-2 1 -5 1307.97 21.8
-2 1 -5 1301.27 18.7
-2 1 -5 1285.27 23.7
2 1 5 1314.07 21.2
-3 -1 -5 1.5 1.5
3 -1 5 0.5 1.3
3 -1 5 2.9 1.3
-3 -1 -5 1 1.5
-3 -1 -5 1.9 1.4
-3 1 -5 0.6 1.3
-3 1 -5 2.3 1.8
3 1 5 1.4 1.2
3 1 5 0 1.2
-3 1 -5 1.7 1.3
-4 -1 -5 147.89 7.4
-4 -1 -5 120.49 6.5
4 -1 5 117.49 5.9
4 1 5 114.19 7.5
-4 1 -5 118.49 6
-4 1 -5 115.89 6.7
-5 -1 -5 310.27 11.4
-5 -1 -5 306.97 11.4
-5 1 -5 309.47 11.8
-6 -1 -5 61.49 6.5
-6 -1 -5 53.59 6
6 1 5 66.69 8.7
-6 1 -5 58.99 6.4
-7 -1 -5 196.28 10.6
7 1 5 199.28 13.5
-7 1 -5 196.78 11
-8 -1 -5 4.5 2.9
-8 1 -5 6.7 3.3
7 -2 -5 63.29 9.2
7 2 -5 75.89 10
6 -2 -5 0.7 2.3
6 2 -5 3.2 2.8
5 -2 -5 3.6 2.5
5 -2 -5 7.7 2.1
5 2 -5 5 2.8
4 -2 -5 -0.3 1
4 -2 -5 -1.5 1.2
4 2 -5 -2.3 1.1
-4 2 5 -1.2 1.4
-3 -2 5 22.3 3.3
3 -2 -5 24.5 2.8
3 -2 -5 21.5 3.2
-3 2 5 21.2 3
3 2 -5 15.3 2.8
2 -2 -5 77.19 4.2
2 2 -5 73.99 4.6
2 2 -5 74.99 2.7
-2 2 5 83.89 4.1
1 -2 -5 3493.65 41.5
1 2 -5 3391.96 39.6
0 -2 -5 24.7 2.6
0 -2 5 15.5 2
0 2 -5 18.3 1.5
0 2 -5 10.1 1.7
1 -2 5 129.79 5.2
-1 -2 -5 138.79 5.5
-1 -2 -5 137.09 5.3
1 -2 5 134.09 3.5
1 2 5 131.09 5.1
-1 2 -5 138.59 5.6
-1 2 -5 132.79 3.5
2 -2 5 797.32 12.6
2 -2 5 806.82 15.7
-2 -2 -5 776.92 15
-2 -2 -5 796.62 15.6
-2 -2 -5 798.12 16
2 2 5 809.12 15.2
-2 2 -5 808.12 12.6
-2 2 -5 807.82 18
3 -2 5 482.15 10.3
3 -2 5 475.35 12.3
-3 -2 -5 476.95 12.2
-3 -2 -5 478.85 12.2
-3 -2 -5 468.45 13
3 2 5 501.95 12.3
-3 2 -5 478.15 14.4
-3 2 -5 468.95 12.7
-3 2 -5 461.35 10.2
-4 -2 -5 106.99 6.3
-4 -2 -5 120.59 6.7
4 -2 5 102.49 5.5
-4 -2 -5 111.39 7.8
4 2 5 103.09 7.1
-4 2 -5 112.89 6.7
-5 -2 -5 851.31 19.7
-5 -2 -5 871.11 20.4
5 2 5 824.82 22.9
-5 2 -5 873.61 20.9
-6 -2 -5 0.9 2.2
-6 -2 -5 3.1 2.3
6 2 5 3.9 2.9
-6 2 -5 2.8 2.2
-7 -2 -5 405.96 14.8
7 2 5 406.06 18.9
-7 2 -5 400.96 15.6
-8 -2 -5 0.3 2.6
-8 2 -5 3 2.8
7 -3 -5 256.57 14.8
7 3 -5 255.97 15.1
6 -3 -5 22.4 5.1
6 3 -5 17.1 4.4
5 -3 -5 -0.6 1.7
5 3 -5 2.3 2.6
4 -3 -5 206.48 7.7
4 -3 -5 217.18 9.6
4 3 -5 203.78 9.7
-4 3 5 229.18 8.9
-3 -3 5 2809.42 41.4
3 -3 -5 2940.71 41.4
3 -3 -5 3007.3 38.8
-3 3 5 2892.11 39.5
3 3 -5 2937.81 43.3
3 3 -5 2868.91 38.8
2 -3 -5 721.83 13.8
-2 3 5 690.23 12.9
2 3 -5 711.83 15.5
-1 -3 5 234.58 5.5
1 -3 -5 252.77 6.1
1 -3 -5 256.17 7.9
1 3 -5 247.58 5.9
0 -3 5 2169.58 28.2
0 -3 -5 2223.38 30.1
0 3 -5 2123.29 28.4
-1 -3 -5 105.09 4.3
1 -3 5 105.49 4.8
-1 -3 -5 101.39 4.9
1 3 5 96.79 4.7
-1 3 -5 97.29 4.8
-2 -3 -5 590.44 12.7
-2 -3 -5 593.04 13.2
2 -3 5 592.64 9.6
-2 -3 -5 582.14 13.1
2 -3 5 571.24 13
2 3 5 571.64 12.9
-2 3 -5 577.24 13.6
-2 3 -5 586.34 9.5
3 -3 5 218.08 6.4
-3 -3 -5 209.88 8.3
-3 -3 -5 216.98 8.3
-3 -3 -5 206.28 8
3 3 5 208.28 8.5
-3 3 -5 213.98 8.6
-3 3 -5 190.78 9.4
3 3 5 214.18 8.1
-4 -3 -5 676.33 16.2
-4 -3 -5 688.03 16.8
-4 -3 -5 670.33 17.4
4 -3 5 701.43 14.3
-4 3 -5 692.53 17.4
4 3 5 672.83 18.2
-5 -3 -5 899.11 20.3
-5 -3 -5 921.61 21.4
-5 3 -5 888.01 21.5
5 3 5 883.51 23.6
-6 -3 -5 8.5 2.8
-6 -3 -5 4.1 2.8
6 3 5 6.9 3.3
-6 3 -5 3.9 2.3
-7 -3 -5 511.25 17.9
-7 -3 -5 525.05 16.8
7 3 5 497.65 20.6
-7 3 -5 491.95 17.5
-8 -3 -5 166.28 10.1
-8 3 -5 164.08 10.9
7 -4 -5 126.79 12.7
7 4 -5 134.49 13.2
6 -4 -5 22.4 5.1
6 4 -5 17.2 4.9
5 -4 -5 187.58 10.3
5 4 -5 178.68 10.5
4 -4 -5 35.9 4.7
4 4 -5 36.2 5.1
-4 4 5 42.1 4.6
3 -4 -5 3.4 1.8
3 -4 -5 1.2 1.3
-3 4 5 0.5 1.3
3 4 -5 0.5 1.5
3 4 -5 4.1 1.7
2 -4 -5 1687.33 25
-2 4 5 1699.23 23.9
2 4 -5 1715.33 24.1
2 4 -5 1734.73 28.2
1 -4 -5 8.5 1.3
-1 -4 5 9.1 1.4
1 -4 -5 9.6 2.1
1 4 -5 10.6 1.4
1 4 -5 10.7 1.5
0 -4 5 9 1.7
0 -4 -5 3.2 1.6
0 4 5 9.4 1.9
0 4 -5 7.3 1.7
1 -4 5 589.44 12.6
-1 -4 -5 593.24 13.2
-1 -4 -5 598.24 10.5
-1 4 -5 586.84 12.8
1 4 5 598.84 13.1
-2 -4 -5 182.98 6.3
-2 -4 -5 159.28 6.6
2 -4 5 176.58 7.1
-2 -4 -5 169.38 7.1
2 4 5 181.18 7.2
-2 4 -5 175.48 7.2
-3 -4 -5 1088.19 20.2
3 -4 5 1066.09 16.3
-3 -4 -5 1058.39 20.1
-3 -4 -5 1058.79 20.9
3 4 5 1058.69 20.9
-3 4 -5 1037 21.2
4 -4 5 1904.41 27.6
-4 -4 -5 1936.71 32.6
-4 -4 -5 1906.71 32.5
-4 -4 -5 1905.61 30.8
-4 4 -5 1868.61 32.8
4 4 5 1875.21 33.7
-5 -4 -5 34.1 4.5
-5 -4 -5 31.7 5
5 4 5 38.2 6
-5 4 -5 31 5.1
-6 -4 -5 4 2.5
-6 -4 -5 0.8 2.5
-6 4 -5 7.8 3.1
6 4 5 3.6 2.8
-7 -4 -5 281.37 13.6
-7 -4 -5 283.97 12.2
7 4 5 275.07 15.6
-7 4 -5 271.97 13.4
7 -5 -5 270.07 15.3
7 5 -5 269.57 15.7
6 -5 -5 120.39 9.4
6 5 -5 98.89 10.2
5 -5 -5 32.6 5.4
5 5 -5 25.5 5
4 -5 -5 85.69 6.4
4 5 -5 97.09 7.1
-4 5 5 98.89 6.1
3 -5 -5 3315.87 46
3 5 -5 3361.96 43.8
3 5 -5 3321.47 48.8
-3 5 5 3371.76 43.9
2 -5 -5 542.15 11.5
2 5 -5 564.64 14.3
2 5 -5 548.45 11.3
-2 5 5 559.54 10.6
-1 -5 5 14.8 1.8
1 -5 -5 17 2.9
1 5 -5 13.6 1.8
1 5 -5 15.5 1.8
0 -5 5 1534.25 22.2
0 -5 -5 1467.95 24.4
0 5 5 1490.15 24.1
0 5 -5 1504.15 22.2
-1 -5 -5 579.24 13.7
1 -5 5 579.24 12.9
-1 5 -5 580.04 13.1
1 5 5 573.04 13.3
-2 -5 -5 198.38 6.2
2 -5 5 214.38 8.2
-2 -5 -5 208.08 8.2
-2 -5 -5 190.98 7.4
-2 5 -5 213.28 8.3
2 5 5 197.78 7.9
-3 -5 -5 416.86 12.7
3 -5 5 415.56 8.4
-3 -5 -5 388.36 11.5
-3 -5 -5 401.86 11
-3 5 -5 425.16 12.8
3 5 5 418.66 11.9
-4 -5 -5 0.9 2.2
4 -5 5 -0.9 1.4
-4 -5 -5 -0.1 1.5
-4 -5 -5 0.6 1.5
-4 5 -5 -0.8 1.5
4 5 5 -1 1.5
-5 -5 -5 166.28 9.4
5 -5 5 160.68 7.4
-5 -5 -5 162.18 8.2
-5 5 -5 180.48 9.7
5 5 5 167.98 10
-6 -5 -5 17.9 4.7
-6 -5 -5 21.2 4.2
6 5 5 24.8 5.6
-6 5 -5 20.3 4.3
-7 -5 -5 420.76 16.9
-7 -5 -5 404.86 14.6
7 5 5 419.36 18.8
-7 5 -5 376.56 16
7 -6 -5 211.78 13.8
7 6 -5 232.68 14.8
6 -6 -5 67.39 8.6
6 6 -5 53.79 7.8
5 -6 -5 1.2 2.4
5 6 -5 2.6 2.5
4 -6 -5 174.38 8.9
-4 6 5 188.88 8.3
4 6 -5 181.18 9.6
3 -6 -5 1256.37 22.7
-3 6 5 1224.08 20.6
3 6 -5 1209.08 21.3
3 6 -5 1168.78 24.5
2 -6 -5 2133.29 33.4
2 -6 -5 2161.18 29.6
2 6 -5 2130.59 28.9
2 6 -5 2141.99 34.3
-2 6 5 2143.29 27.8
-1 -6 5 733.43 12.5
1 -6 -5 715.93 16.1
1 6 -5 722.13 11.5
1 6 -5 711.53 12.3
0 -6 -5 1546.75 25.8
0 -6 5 1539.75 23.2
0 6 -5 1487.25 22.9
0 6 5 1515.85 25.2
1 -6 5 743.13 15.5
-1 -6 -5 747.23 16.6
1 6 5 747.03 16.2
-1 6 -5 741.63 15.6
-2 -6 -5 472.25 13.1
-2 -6 -5 422.56 8.9
-2 6 -5 452.15 12.7
-3 -6 -5 611.04 13.4
-3 -6 -5 634.54 15.2
-3 -6 -5 637.04 16.5
-3 6 -5 641.64 16.6
3 6 5 614.74 14.6
4 -6 5 242.38 7.4
-4 -6 -5 246.28 10.8
-4 -6 -5 250.17 9.3
-4 -6 -5 236.48 9.4
4 6 5 246.38 10.4
-4 6 -5 232.08 10.4
-5 -6 -5 453.55 13.8
-5 -6 -5 452.45 15.7
-5 6 -5 453.85 15.6
5 6 5 440.26 16
-6 -6 -5 5.4 3.3
-6 -6 -5 -3.8 1.6
6 6 5 -2.5 2.1
-6 6 -5 -0.3 1.9
-7 -6 -5 432.46 17.6
-7 -6 -5 407.86 14.5
7 6 5 394.56 18.5
-7 6 -5 418.96 17.3
7 -7 -5 277.47 15.4
7 7 -5 305.17 16.9
6 -7 -5 137.69 10.3
6 7 -5 141.99 11.1
5 -7 -5 22 4.6
5 7 -5 22.9 4.8
4 -7 -5 927.51 21.5
-4 7 5 955.3 19.7
4 7 -5 959.6 23.6
3 -7 -5 257.97 9.1
-3 7 5 261.57 8.1
3 7 -5 272.67 9
3 7 -5 274.07 11.1
2 -7 -5 1203.98 18.9
2 -7 -5 1255.37 24
2 7 -5 1203.68 19.3
2 7 -5 1198.48 23.9
-2 7 5 1201.48 17.4
-1 -7 5 3.5 1.4
1 -7 -5 2.4 1.7
1 7 -5 2.7 1
1 7 -5 3 1.2
0 -7 -5 37.8 4.2
0 -7 5 28.6 3.2
0 7 -5 28.9 3.2
1 -7 5 142.19 6.7
-1 -7 -5 148.99 7.3
-1 7 -5 161.18 6.9
-2 -7 -5 794.62 18.3
-2 -7 -5 761.92 12.1
-2 7 -5 735.33 17.3
-3 -7 -5 294.97 11.3
-3 -7 -5 296.27 10.2
-3 -7 -5 290.37 8.4
3 7 5 283.57 9.4
-3 7 -5 285.87 11.2
-4 -7 -5 175.48 8.2
-4 -7 -5 154.48 9.1
-4 -7 -5 175.28 7.7
4 -7 5 171.48 6.1
4 7 5 173.88 8.8
-4 7 -5 169.38 9.2
-5 -7 -5 119.89 8.9
-5 -7 -5 105.39 6.9
-5 7 -5 138.49 9.2
5 7 5 130.99 8.8
-6 -7 -5 0.6 2.5
-6 -7 -5 4 2.6
-6 7 -5 -2.7 2
6 7 5 1.3 2.6
7 7 5 173.48 12.7
7 -8 -5 228.58 14.5
6 -8 -5 123.29 9.9
6 8 -5 99.09 11
5 -8 -5 3.6 2.6
5 8 -5 4.5 2.8
4 -8 -5 74.29 7.2
4 8 -5 70.69 7.6
-4 8 5 72.19 5.4
3 -8 -5 4.8 2
3 -8 -5 8.5 2.7
3 8 -5 3.5 1.9
-3 8 5 5.5 1.7
3 8 -5 1.8 1.9
2 -8 -5 5.1 2.1
2 8 -5 6.1 2.4
2 8 -5 6.5 1.8
1 -8 -5 2112.49 34.3
-1 -8 5 2157.28 29.4
1 8 -5 2132.49 28.8
1 8 -5 2127.29 26.7
0 -8 -5 3.6 1.9
0 -8 5 7.4 2
0 8 -5 5.8 1.7
-1 -8 -5 1067.79 22.3
-1 8 -5 1098.59 21
-2 -8 -5 -0.8 1.7
-2 8 -5 1.6 1.5
-3 -8 -5 364.06 13.1
-3 -8 -5 356.06 9
-3 -8 -5 365.36 11.8
-3 8 -5 382.16 13.1
3 8 5 355.16 10.3
-4 -8 -5 344.97 11.7
-4 -8 -5 360.86 13.9
-4 8 -5 332.17 13.2
4 8 5 328.37 11.9
-5 -8 -5 621.64 19.7
-5 -8 -5 618.94 16.6
-5 8 -5 638.34 19.6
5 8 5 643.24 19
-6 -8 -5 100.29 10.2
-6 -8 -5 96.39 7.1
6 8 5 103.29 10.1
-6 8 -5 88.39 9.2
7 8 5 126.29 12.5
6 -9 -5 96.29 10
6 9 -5 80.09 9.6
5 -9 -5 2 2.4
5 9 -5 3.9 3
4 -9 -5 1.7 1.8
4 9 -5 -3 1.7
3 -9 -5 1775.32 32.9
3 9 -5 1784.72 33.8
-3 9 5 1784.32 26.4
2 -9 -5 10.4 2.9
-2 -9 5 11 1.9
2 9 -5 14 2.5
2 9 -5 20.4 3.8
-1 -9 5 148.69 6.2
1 -9 -5 160.38 8.2
1 9 -5 146.49 4.8
0 -9 -5 414.56 13.3
0 -9 5 425.66 11.7
0 9 -5 414.86 11.3
-1 -9 -5 2.2 2
-1 9 -5 3.1 1.7
-2 -9 -5 516.05 15.7
-2 9 -5 514.55 14.8
-3 -9 -5 93.69 6.3
-3 -9 -5 81.49 7.3
-3 9 -5 92.79 7
3 9 5 90.29 5.1
-4 -9 -5 58.19 5.9
-4 -9 -5 53.39 6.6
4 9 5 50.59 5.6
-4 9 -5 50.99 6.3
-5 -9 -5 192.58 11.4
-5 -9 -5 209.58 9.7
-5 9 -5 181.58 11
5 9 5 164.48 9.7
-6 -9 -5 0.9 2.4
-6 -9 -5 -2.5 2.6
6 9 5 0.3 2.8
-6 9 -5 1.7 2.6
6 10 -5 258.37 15
5 10 -5 53.49 7.6
4 -10 -5 9.2 3.2
4 10 -5 4.8 3.1
3 -10 -5 121.99 8
3 10 -5 112.99 8
-2 -10 5 272.57 7.6
2 -10 -5 250.17 11
2 10 -5 266.07 11.2
2 10 -5 269.87 8.4
-1 -10 5 274.47 8.8
1 -10 -5 285.77 11.4
1 10 -5 268.87 7
1 10 -5 266.67 10.8
0 -10 -5 12.2 3.2
0 10 -5 18.2 3.1
-1 -10 -5 76.09 7.1
-1 10 -5 75.89 5.8
-2 -10 -5 40.7 5.3
-2 10 -5 50.69 5.7
-3 -10 -5 123.99 8.5
-3 10 -5 118.49 8
-4 -10 -5 103.09 7
-4 -10 -5 104.69 9.3
-4 10 -5 105.09 8.1
4 10 5 103.09 6.8
-5 -10 -5 110.89 7.5
-5 -10 -5 121.39 11.2
-5 10 -5 108.59 9.7
6 11 -5 13.8 5.6
5 -11 -5 3.2 2.4
5 11 -5 7.1 3.4
4 -11 -5 66.19 7.7
4 11 -5 62.49 7.8
3 -11 -5 948.31 23.4
3 11 -5 950.6 24
2 -11 -5 71.99 7.3
2 11 -5 75.09 7.3
1 -11 -5 132.19 8.2
-1 -11 5 118.99 6.3
1 11 -5 120.79 7.6
0 -11 -5 110.39 7.6
-1 -11 -5 111.79 7.7
-1 11 -5 87.89 6.3
-2 -11 -5 49.7 6.1
-2 11 -5 55.19 6.1
-3 -11 -5 28.4 5.5
-3 11 -5 25.6 4.7
-4 -11 -5 9.1 3.8
-4 -11 -5 12.6 3.5
-4 11 -5 9.9 3.5
-5 -11 -5 178.08 11.9
-5 -11 -5 212.78 10.3
-5 11 -5 196.18 12
5 -12 -5 18 4.9
5 12 -5 25.3 5.6
4 -12 -5 12.3 3.6
4 12 -5 15.7 4.5
3 -12 -5 32.6 5.6
3 12 -5 30.6 5.4
2 -12 -5 10.1 3.4
2 12 -5 14.7 3.8
1 -12 -5 135.99 8.7
1 12 -5 139.29 8.4
0 -12 -5 70.79 7.2
-1 -12 -5 429.66 15.4
-2 -12 -5 56.69 7
-2 12 -5 35.5 5.3
-3 -12 -5 354.26 15.1
-3 12 -5 364.26 14.6
-4 -12 -5 82.89 9.3
-4 -12 -5 98.29 8.4
-4 12 -5 84.29 8.9
5 -13 -5 -1.2 2.7
5 13 -5 -2.5 2.6
4 -13 -5 15 4.1
4 13 -5 10.3 4.2
3 -13 -5 268.07 12.8
3 13 -5 283.17 13.3
2 -13 -5 241.78 11.9
2 13 -5 234.68 11.6
1 -13 -5 -1.6 2
1 13 -5 1.3 2.1
0 -13 -5 95.19 8.6
-1 -13 -5 127.79 9
-2 -13 -5 184.08 10.9
-3 -13 -5 109.99 10.5
-4 -13 -5 39.1 6.8
-4 -13 -5 55.79 6.8
-4 13 -5 39.7 6.4
4 -14 -5 79.39 8.7
4 14 -5 80.19 9.7
3 -14 -5 77.89 8.7
3 14 -5 71.59 8.5
2 -14 -5 228.18 12
2 14 -5 207.68 11.3
1 -14 -5 137.69 9.5
1 14 -5 146.69 9.2
0 -14 -5 56.29 7.3
-1 -14 -5 61.59 7.8
-2 -14 -5 0.1 2.7
-3 -14 -5 100.89 10.2
3 -15 -5 398.56 16.7
3 15 -5 417.66 17.1
2 -15 -5 163.28 10.8
2 15 -5 150.18 10.2
1 -15 -5 2.2 2.8
1 15 -5 -1.2 2.4
0 -15 -5 312.47 14.4
0 15 -5 347.87 14
-1 -15 -5 171.18 11
-2 -15 -5 250.37 13.6
1 -16 -5 219.48 12.7
0 -16 -5 6 3.7
7 0 -6 8.3 4.3
6 0 -6 14.3 4.4
5 0 -6 249.38 7.4
5 0 -6 264.17 12.3
4 0 -6 737.53 18.9
4 0 -6 716.83 13.1
-3 0 6 32.5 3.8
3 0 -6 30.2 3.9
2 0 -6 553.44 13
1 0 -6 680.93 13.6
0 0 -6 359.36 9
0 0 -6 348.17 8.1
1 0 6 157.68 5.2
-1 0 -6 160.78 6.3
-1 0 -6 151.48 5.2
-2 0 -6 2104.89 31.5
2 0 6 2156.48 29
2 0 6 2108.09 31
-2 0 -6 2155.48 29
-2 0 -6 2176.18 34
-3 0 -6 861.01 16.6
-3 0 -6 892.21 18.7
-3 0 -6 898.41 20.5
3 0 6 896.31 16.7
-4 0 -6 1.2 1.8
-4 0 -6 0.6 1.6
4 0 6 4.5 1.9
-5 0 -6 897.01 21.3
-5 0 -6 898.81 20
-6 0 -6 46.1 6.2
-7 0 -6 398.16 15.6
-8 0 -6 284.17 13.8
7 -1 -6 185.08 12.9
7 1 -6 203.08 13.5
6 -1 -6 760.52 23.5
6 1 -6 780.12 23.8
5 -1 -6 304.87 8.9
5 -1 -6 287.37 12.8
5 1 -6 304.37 13.3
5 1 -6 294.67 7.3
4 -1 -6 47 3.3
4 -1 -6 39.1 5.1
4 1 -6 48.4 2.7
4 1 -6 40.5 5.2
3 -1 -6 1618.44 27.4
-3 -1 6 1589.44 26.9
-3 1 6 1567.74 26
3 1 -6 1568.24 27.8
2 -1 -6 1054.59 19
2 1 -6 1078.69 20
1 -1 -6 3.9 1.5
1 1 -6 4.3 1.4
0 -1 -6 1443.66 21.5
0 -1 -6 1449.06 22.2
0 1 -6 1451.25 19.8
0 1 -6 1452.65 21.7
-1 -1 -6 4019.9 47.9
-1 -1 -6 3983.5 49.8
1 -1 6 3989.9 49.1
1 -1 6 3911.31 45.4
-1 1 -6 3979.4 49.5
1 1 6 4004.8 47.7
-1 1 -6 4032.7 45.6
-2 -1 -6 658.93 14.7
2 -1 6 643.74 14.4
-2 -1 -6 701.43 15.9
2 -1 6 701.13 12.4
-2 -1 -6 654.03 13.4
-2 1 -6 674.53 16.5
2 1 6 685.53 13.7
-2 1 -6 669.53 15
-2 1 -6 693.13 12.4
-3 -1 -6 114.99 6.4
3 -1 6 105.79 5
-3 -1 -6 109.69 5.7
-3 -1 -6 112.79 6.7
-3 1 -6 109.59 6.9
3 1 6 111.39 5.6
-3 1 -6 122.99 5.4
-4 -1 -6 457.65 13.6
-4 -1 -6 445.76 12.7
4 -1 6 449.26 12
-4 1 -6 453.45 12
-4 1 -6 438.76 13.6
-5 -1 -6 4.5 2.3
-5 -1 -6 1 2.3
-5 1 -6 5.9 2.3
-5 1 -6 5.5 2.7
-6 -1 -6 136.19 8.8
-6 -1 -6 117.99 7.9
-6 1 -6 138.39 8.8
-7 -1 -6 139.49 9.5
-7 1 -6 136.99 9.6
-8 -1 -6 11.4 4
-8 1 -6 13.2 4
7 -2 -6 230.58 14.2
7 2 -6 278.47 15.7
6 -2 -6 3.5 3.1
6 2 -6 2.2 2.6
5 -2 -6 161.08 6.8
5 -2 -6 144.89 9.2
5 2 -6 136.09 9.2
4 -2 -6 310.77 11.8
4 -2 -6 331.17 9.3
4 2 -6 330.97 12.4
3 -2 -6 108.69 6.1
3 2 -6 100.89 6.3
3 2 -6 110.99 3.5
-3 2 6 111.39 5.7
2 -2 -6 11.6 2.2
2 2 -6 17.7 2.9
2 2 -6 13.3 1.7
1 -2 -6 216.78 6.4
1 -2 -6 224.68 7.5
1 2 -6 213.08 6
0 -2 -6 475.35 11
0 -2 6 494.45 10.4
0 2 -6 489.55 10.6
0 2 -6 476.75 8.5
1 -2 6 1197.18 19.8
-1 -2 -6 1178.18 20.3
1 -2 6 1189.18 16.1
-1 -2 -6 1197.88 19.7
1 2 6 1209.18 19.6
-1 2 -6 1221.08 20.4
-1 2 -6 1203.38 16.2
-2 -2 -6 14.1 2.4
2 -2 6 19.7 3
-2 -2 -6 19.4 2.9
-2 -2 -6 21.4 3.2
2 -2 6 21.1 2.1
-2 2 -6 25 2.4
2 2 6 23 2.9
-2 2 -6 18.5 2.9
-3 -2 -6 2214.98 34.3
-3 -2 -6 2268.77 33.7
-3 -2 -6 2286.07 36.1
3 -2 6 2319.87 30.5
-3 2 -6 2247.38 35.2
3 2 6 2272.87 33.5
-3 2 -6 2278.67 30.6
-4 -2 -6 9.9 2.6
4 -2 6 11.2 2.3
-4 -2 -6 7.5 2.5
-4 2 -6 6.2 2.3
-4 2 -6 11.5 2.5
-5 -2 -6 378.16 13
-5 -2 -6 346.27 12.6
-5 2 -6 373.96 13.5
-6 -2 -6 4.9 2.7
-6 -2 -6 3.3 2.5
-6 2 -6 5.5 2.9
-7 -2 -6 28.7 5.1
-7 2 -6 43.2 6.3
-8 -2 -6 60.59 7.5
-8 2 -6 57.69 8.7
7 -3 -6 199.38 13.3
7 3 -6 199.98 13.6
6 -3 -6 125.59 9.7
6 3 -6 133.89 10.2
5 -3 -6 223.28 11.2
5 3 -6 226.18 11.6
4 -3 -6 626.14 17
4 -3 -6 632.34 14.3
4 3 -6 599.84 17.5
3 -3 -6 940.81 19.2
-3 3 6 932.51 17.9
3 3 -6 911.41 17.6
3 3 -6 948.11 20.7
2 -3 -6 11.3 2.2
2 3 -6 12.3 1.5
2 3 -6 16.1 2.9
1 -3 -6 153.28 5.1
1 -3 -6 145.89 6.3
1 3 -6 148.69 5
0 -3 -6 22.9 3
0 -3 6 19.5 2.4
0 3 -6 22.1 1.5
0 3 -6 18.1 2.5
-1 -3 -6 4709.33 55.79
-1 -3 -6 4524.45 56.69
-1 -3 -6 4497.05 56.09
1 -3 6 4665.23 55.99
1 3 6 4604.34 55.99
-1 3 -6 4655.53 56.69
2 -3 6 15.7 2.7
-2 -3 -6 12.3 2.3
2 -3 6 18 1.8
-2 -3 -6 13.2 2.5
-2 -3 -6 16.6 2.7
-2 3 -6 17.7 3
2 3 6 15.2 2.5
-2 3 -6 19.9 1.9
-3 -3 -6 644.84 15.7
-3 -3 -6 618.24 15.2
-3 -3 -6 640.14 15.3
3 -3 6 638.74 12
-3 3 -6 634.94 11.9
-3 3 -6 614.04 16
-4 -3 -6 144.59 7.6
-4 -3 -6 154.08 8
4 -3 6 148.69 6.3
-4 3 -6 148.99 8.2
-5 -3 -6 553.64 16.1
-5 -3 -6 570.54 16.8
-5 3 -6 551.74 17
5 3 6 591.24 18.8
-6 -3 -6 188.78 10.4
-6 -3 -6 191.08 9.9
6 3 6 186.98 11.7
-6 3 -6 205.38 10.9
-7 -3 -6 42.6 6
-7 -3 -6 50.29 6.9
7 3 6 41.3 7.9
-7 3 -6 39.7 6.3
-8 -3 -6 22.1 5
7 -4 -6 202.48 13.3
7 4 -6 190.78 13.6
6 -4 -6 46.2 7
6 4 -6 37.4 6.5
5 -4 -6 1134.09 26.8
5 4 -6 1204.88 28.5
4 -4 -6 182.18 9
-4 4 6 201.78 9.4
4 4 -6 201.78 10
3 -4 -6 381.46 11.3
3 4 -6 400.66 10.8
3 4 -6 371.16 12.6
-3 4 6 391.56 10.5
2 -4 -6 52.19 3.6
2 4 -6 54.29 5.2
-2 4 6 54.49 3.3
2 4 -6 62.89 3.7
1 -4 -6 109.19 5.8
-1 -4 6 121.19 4.3
1 -4 -6 120.89 4.2
1 4 -6 121.19 4
1 4 -6 118.09 4.4
0 -4 -6 352.06 10.3
0 -4 6 371.66 9.1
0 -4 -6 369.46 7
0 4 -6 359.86 9.2
-1 -4 -6 57.59 3.2
1 -4 6 51.39 3.9
-1 -4 -6 61.19 4.4
-1 4 -6 62.19 4.4
1 4 6 54.39 4.1
-2 -4 -6 542.65 12.2
-2 -4 -6 532.85 13.4
-2 -4 -6 532.65 13.5
2 -4 6 527.15 13.2
-2 4 -6 533.15 13.7
2 4 6 528.15 13.3
3 -4 6 970.6 15.1
-3 -4 -6 961.5 19.6
-3 -4 -6 951.8 19.6
-3 -4 -6 955.4 20.1
-3 4 -6 977.5 20.9
-4 -4 -6 20.2 3.8
-4 -4 -6 24 4.3
-4 -4 -6 21 3.6
4 -4 6 18.4 2.7
-4 4 -6 24.1 4.1
-5 -4 -6 278.37 11.9
-5 -4 -6 282.97 11.3
5 -4 6 298.97 10.1
-5 4 -6 271.97 12
5 4 6 282.87 12.8
-6 -4 -6 367.66 14.7
-6 -4 -6 364.66 13.6
6 4 6 375.26 16.2
-6 4 -6 352.66 14.6
-7 -4 -6 135.09 9.2
-7 -4 -6 158.28 10.6
-7 4 -6 134.79 9.8
7 4 6 153.38 14.4
7 -5 -6 275.67 15.6
7 5 -6 245.38 15.2
6 -5 -6 289.77 14.2
6 5 -6 322.77 15.7
5 -5 -6 748.43 21.2
5 5 -6 784.22 22.5
4 -5 -6 666.33 17.7
-4 5 6 671.03 16
4 5 -6 676.63 19.3
3 -5 -6 3980.7 52.59
-3 5 6 3918.81 50.09
3 5 -6 3884.91 50.09
3 5 -6 3939.51 56.29
2 -5 -6 23.5 2.9
2 5 -6 25.1 3.9
2 5 -6 25.7 2.9
-2 5 6 21.5 2.4
1 -5 -6 -0.4 1.2
-1 -5 6 0.6 1
1 -5 -6 0.6 0.6
1 5 -6 1.1 1
1 5 -6 1.8 1
0 -5 6 8.7 1.9
0 -5 -6 7.1 1.9
0 5 -6 6.4 1.8
1 -5 6 2234.88 32.3
-1 -5 -6 2225.88 27.9
-1 -5 -6 2203.88 33.6
1 5 6 2196.88 33.2
-1 5 -6 2207.98 32.6
-2 -5 -6 230.38 9
-2 -5 -6 218.48 6.9
-2 -5 -6 232.48 8.7
-2 5 -6 229.18 8.9
-3 -5 -6 84.69 5.7
-3 -5 -6 79.99 5
3 -5 6 73.89 3.3
-3 -5 -6 70.99 5.6
-3 5 -6 63.59 6.2
-4 -5 -6 496.65 15.3
4 -5 6 512.75 11.1
-4 -5 -6 483.85 14.2
-4 -5 -6 474.65 14
4 5 6 490.35 15
-4 5 -6 495.55 15.5
-5 -5 -6 103.99 7.2
-5 -5 -6 85.69 7.8
5 5 6 107.89 8.1
-5 5 -6 92.79 8.7
-6 -5 -6 38.2 5.4
-6 -5 -6 42 6.3
-6 5 -6 43.6 6.7
6 5 6 45.9 6.9
-7 -5 -6 4.7 3.7
-7 -5 -6 1.1 2.6
-7 5 -6 4.4 3.3
7 5 6 -2.7 2.8
7 -6 -6 53.59 8.5
7 6 -6 56.19 9.6
6 -6 -6 56.19 7.8
6 6 -6 79.69 9.7
5 -6 -6 270.07 12.3
5 6 -6 256.37 12.9
4 -6 -6 644.74 17.4
-4 6 6 646.84 15.7
4 6 -6 662.33 19.3
3 -6 -6 190.28 7.9
3 6 -6 192.28 9.5
3 6 -6 184.78 7.4
-3 6 6 177.38 6.6
2 -6 -6 3.7 1.4
2 -6 -6 8.2 2.4
2 6 -6 2.3 1.8
-2 6 6 3.3 1.4
2 6 -6 5.3 1.7
-1 -6 6 14 2.1
1 -6 -6 6.9 2.1
1 6 -6 10.3 1.8
1 6 -6 14.9 1.7
0 -6 -6 287.67 10
0 -6 6 269.27 8.2
0 6 -6 272.07 8.3
-1 -6 -6 113.19 6.5
1 -6 6 121.59 6.2
-1 6 -6 105.49 5.8
-2 -6 -6 209.18 9
-2 -6 -6 196.58 6
-2 6 -6 208.08 8.7
-3 -6 -6 900.91 17.5
-3 -6 -6 897.31 20.7
-3 -6 -6 878.91 19.4
-3 6 -6 918.91 20.9
-4 -6 -6 23.6 3.7
-4 -6 -6 23.2 3.9
-4 -6 -6 22.8 4.3
4 -6 6 23.7 2.8
-4 6 -6 25.6 4.6
4 6 6 26.7 4.3
-5 -6 -6 225.88 11.5
-5 -6 -6 231.88 10.2
-5 6 -6 211.88 11.2
5 6 6 225.68 11.3
-6 -6 -6 89.49 9
-6 -6 -6 80.49 7.6
-6 6 -6 77.79 8.3
6 6 6 100.79 10.2
-7 -6 -6 145.89 9.4
7 6 6 130.99 13
-7 6 -6 114.29 11.4
7 -7 -6 5.9 4
6 -7 -6 140.49 10.3
6 7 -6 136.19 10.9
5 -7 -6 123.49 8.7
5 7 -6 110.09 10.2
4 -7 -6 244.68 10.5
4 7 -6 254.77 12
-4 7 6 259.07 9.5
3 -7 -6 420.86 11.9
3 7 -6 415.06 14.4
-3 7 6 414.06 10.3
3 7 -6 416.76 11.4
2 -7 -6 32.1 3
2 -7 -6 32.7 4.7
2 7 -6 31.4 4.6
2 7 -6 35 3.3
1 -7 -6 938.11 20.4
-1 -7 6 945.01 15.8
1 7 -6 959.8 13.8
1 7 -6 919.31 15.8
0 -7 6 178.48 6.9
0 -7 -6 171.58 8.1
0 7 -6 166.68 6.6
-1 -7 -6 3719.03 51.89
1 -7 6 3704.23 49.8
-1 7 -6 3846.42 50.19
-2 -7 -6 1388.26 26.6
-2 7 -6 1326.37 25.4
-3 -7 -6 159.88 8.7
-3 -7 -6 151.18 6.1
-3 -7 -6 151.28 7.8
-3 7 -6 145.99 8.2
-4 -7 -6 95.69 6.5
-4 -7 -6 92.09 8.3
-4 -7 -6 83.89 5.6
-4 7 -6 76.69 7.5
4 7 6 89.59 6.4
-5 -7 -6 226.88 11.9
-5 -7 -6 221.28 10.1
-5 7 -6 235.88 11.9
5 7 6 220.28 11.1
-6 -7 -6 185.38 9.9
-6 -7 -6 196.28 11.9
-6 7 -6 224.18 12.2
6 7 6 197.68 11.8
-7 -7 -6 30.3 5.6
7 7 6 29.4 6.4
7 -8 -6 128.89 13.3
6 -8 -6 32.8 5.9
6 8 -6 20.1 5.4
5 -8 -6 181.18 10.3
5 8 -6 191.98 11.7
4 -8 -6 120.59 7.4
4 8 -6 139.09 9.2
3 -8 -6 0.1 1.7
3 -8 -6 1.1 1.8
3 8 -6 1.4 2.1
-3 8 6 0.3 1.4
3 8 -6 0.6 1.6
2 -8 -6 322.37 12.1
-2 -8 6 348.97 7.4
2 8 -6 340.47 8.9
2 8 -6 333.07 12.4
1 -8 -6 498.65 14.7
-1 -8 6 516.95 11.4
1 8 -6 515.25 11.1
0 -8 6 244.48 8.5
0 -8 -6 247.68 10.1
0 8 -6 227.48 8.1
-1 -8 -6 273.97 10.9
-1 8 -6 274.07 9.8
-2 -8 -6 541.45 15.9
-2 8 -6 521.85 14.9
-3 -8 -6 364.86 12.4
-3 -8 -6 365.26 13.5
-3 -8 -6 354.66 9
-3 8 -6 373.66 13.3
-4 -8 -6 23.1 4.7
-4 -8 -6 28.5 4.5
4 8 6 25.1 4.1
-4 8 -6 23.2 4.5
-5 -8 -6 131.69 8.1
-5 -8 -6 143.59 9.9
5 8 6 125.39 8.5
-5 8 -6 123.89 9.2
-6 -8 -6 43 7
-6 -8 -6 44.2 5.9
6 8 6 44 6.9
-6 8 -6 39.4 6.2
6 9 -6 158.38 12
5 -9 -6 81.29 8.3
5 9 -6 71.89 8.7
4 -9 -6 148.29 8.1
4 -9 -6 154.58 9.5
4 9 -6 170.38 10.5
3 -9 -6 508.05 16.3
3 9 -6 532.25 17.2
2 -9 -6 12.1 3.2
-2 -9 6 8.3 1.7
2 9 -6 10.5 2.1
2 9 -6 9.8 3
-1 -9 6 296.27 8.8
1 -9 -6 315.07 11.9
1 9 -6 318.67 8.8
0 -9 -6 181.58 9.1
0 -9 6 164.58 7.4
0 9 -6 165.88 7.1
-1 -9 -6 713.03 18.8
-1 9 -6 712.53 17
-2 -9 -6 64.19 6.9
-2 9 -6 52.89 5.8
-3 -9 -6 173.78 8.8
-3 -9 -6 180.28 10
-3 9 -6 171.28 9.4
-4 -9 -6 108.29 9.6
-4 -9 -6 136.79 8.2
-4 9 -6 121.99 8.6
-5 -9 -6 17.3 4
-5 -9 -6 21.7 5.3
5 9 6 21.5 4.6
-5 9 -6 19.5 4.6
-6 -9 -6 72.89 7.5
6 10 -6 0.8 3.2
5 -10 -6 51.49 7.3
5 10 -6 63.69 8.4
4 -10 -6 33.2 5.4
4 10 -6 16.7 4.4
3 -10 -6 2.9 2.4
3 10 -6 1 2.4
2 -10 -6 24.6 4.8
2 10 -6 17.9 4
1 -10 -6 311.27 12.4
-1 -10 6 298.17 9.4
1 10 -6 323.37 12.5
0 -10 -6 -2.1 1.5
0 10 -6 -0.2 1.3
-1 -10 -6 62.19 6.5
-1 10 -6 67.29 6.2
-2 -10 -6 26.4 4.7
-2 10 -6 26.7 4.4
-3 -10 -6 640.84 17.7
-3 -10 -6 631.24 19.4
-3 10 -6 670.03 19.2
-4 -10 -6 1.1 2.1
-4 -10 -6 -1.6 2.6
-4 10 -6 0.8 2.3
-5 -10 -6 56.29 7.6
-5 -10 -6 72.09 7.1
-5 10 -6 52.39 7
5 -11 -6 21.1 4.8
5 11 -6 19.5 5.1
4 -11 -6 106.79 10.1
4 11 -6 90.19 9.2
3 -11 -6 743.03 21.1
3 11 -6 727.23 21.4
2 -11 -6 71.69 7.7
2 11 -6 66.99 7.2
1 -11 -6 4.4 2.7
1 11 -6 1.3 2.1
0 -11 -6 79.99 7.9
-1 -11 -6 660.13 19.3
-1 11 -6 650.33 17.2
-2 -11 -6 77.99 8.2
-2 11 -6 66.29 6.9
-3 -11 -6 97.99 9.4
-3 11 -6 84.79 8.1
-4 -11 -6 213.78 12.4
-4 -11 -6 213.78 10.5
-4 11 -6 188.38 11.2
-5 -11 -6 108.09 8.2
5 -12 -6 163.28 11.2
5 12 -6 172.38 12.2
4 -12 -6 68.69 7.9
4 12 -6 89.29 10.1
3 -12 -6 31.1 5.6
3 12 -6 22.3 4.8
2 -12 -6 14.5 3.9
2 12 -6 27.2 5.1
1 -12 -6 246.58 11.9
1 12 -6 236.58 11.3
0 -12 -6 36.4 5.8
-1 -12 -6 54.99 7
-1 12 -6 56.59 6.2
-2 -12 -6 156.68 10.1
-2 12 -6 168.48 9.6
-3 -12 -6 398.56 16.2
-3 12 -6 398.96 15.5
-4 -12 -6 7.1 3.4
-4 -12 -6 7.3 4
-4 12 -6 2.3 3
4 -13 -6 63.79 8.2
4 13 -6 49.6 7.5
3 -13 -6 639.24 20.5
3 13 -6 592.14 20.1
2 -13 -6 61.49 7.8
2 13 -6 60.29 7.2
1 -13 -6 104.49 9.8
1 13 -6 99.69 7.8
0 -13 -6 49.7 7
-1 -13 -6 874.71 24.2
-2 -13 -6 352.46 15.4
-3 -13 -6 3.8 3.6
-3 13 -6 10.7 3.9
-4 -13 -6 94.19 8.8
4 14 -6 -0.5 3.2
3 -14 -6 110.69 10.4
3 14 -6 88.09 9.2
2 -14 -6 4.2 3.1
2 14 -6 4.7 3.3
1 -14 -6 5.7 3.2
1 14 -6 0.5 2.6
0 -14 -6 1.7 2.9
-1 -14 -6 1.2 2.6
-2 -14 -6 3.6 3.3
3 15 -6 235.38 13.7
2 -15 -6 56.09 7.7
2 15 -6 40.4 6.5
1 -15 -6 -2.3 2.7
1 15 -6 3.3 2.9
0 -15 -6 1.1 2.8
0 15 -6 5.1 3.3
-1 -15 -6 332.57 15.8
0 16 -6 0.2 3
7 0 -7 141.69 13.2
6 0 -7 294.47 14.6
5 0 -7 0.7 2.3
5 0 -7 0.5 1.1
4 0 -7 4.6 2.4
4 0 -7 8.2 1.7
3 0 -7 2115.59 34.4
2 0 -7 545.95 13.4
1 0 -7 321.27 9.3
1 0 -7 311.97 8.5
0 0 -7 1078.89 19
0 0 -7 1111.39 17.8
-1 0 -7 123.09 5.9
1 0 7 125.19 5
-1 0 -7 125.29 5
-2 0 -7 1240.98 22.6
2 0 7 1271.97 20.1
-2 0 -7 1207.08 19.9
-2 0 -7 1272.57 24.6
-3 0 -7 221.98 9.3
3 0 7 227.18 7.9
-3 0 -7 221.38 7.9
-3 0 -7 225.28 11.5
-4 0 -7 76.79 6.1
-4 0 -7 72.49 5.3
-5 0 -7 260.57 10.5
-5 0 -7 284.97 12.1
-6 0 -7 29.6 4.7
-6 0 -7 25.9 4.7
-7 0 -7 582.64 19.6
7 -1 -7 203.18 13.6
7 1 -7 197.58 13.5
6 -1 -7 72.69 9
6 1 -7 51.99 7.5
5 -1 -7 19.6 2.9
5 -1 -7 19.8 4.3
5 1 -7 28.3 5.3
4 -1 -7 170.98 8.9
4 -1 -7 155.58 6.2
4 1 -7 167.68 9
4 1 -7 148.99 5
3 -1 -7 297.97 10.5
3 1 -7 327.37 11.4
2 -1 -7 199.78 7.6
2 1 -7 201.28 8
2 1 -7 213.38 6.3
1 -1 -7 1114.09 19
1 -1 -7 1094.09 19.1
1 1 -7 1096.59 18
0 -1 -7 3068.19 40.2
0 -1 -7 3063.99 39.1
0 1 -7 2986.2 36.9
0 1 -7 3015.7 39.5
-1 -1 -7 151.78 5.9
-1 -1 -7 140.99 6.4
1 -1 7 140.49 6.1
1 -1 7 149.88 5
1 1 7 144.29 5.7
-1 1 -7 134.79 6.2
-1 1 -7 140.69 4.9
-2 -1 -7 838.22 17.9
-2 -1 -7 909.31 19.3
2 -1 7 862.71 17.8
-2 -1 -7 862.41 16.4
2 -1 7 870.41 15
-2 1 -7 853.31 14.9
-2 1 -7 873.21 18.4
2 1 7 886.31 16.5
-3 -1 -7 8.2 2.8
3 -1 7 6.2 1.8
-3 -1 -7 7.3 2.2
-3 -1 -7 8.3 2.5
-3 1 -7 4.4 2.1
-3 1 -7 11.9 2.4
3 1 7 5.1 1.8
-4 -1 -7 29.6 4
4 -1 7 49.2 4.7
-4 -1 -7 36.5 4.9
-4 1 -7 37.4 4.2
-4 1 -7 37.6 5
-5 -1 -7 806.92 19.6
-5 -1 -7 808.72 20.7
-5 1 -7 776.02 18.2
-5 1 -7 772.22 20.7
-6 -1 -7 39.2 5.4
-6 -1 -7 28.9 5.1
-6 1 -7 36.1 5.7
-7 -1 -7 94.19 9.3
-7 1 -7 112.69 10.5
-8 -1 -7 89.59 10.2
7 -2 -7 333.27 17.1
7 2 -7 368.96 18.2
6 -2 -7 165.68 11.1
6 2 -7 173.88 11.7
5 -2 -7 1.5 2.4
5 -2 -7 -1.5 1.2
5 2 -7 0.4 2.2
4 -2 -7 31.6 3.5
4 -2 -7 42.2 5.4
4 2 -7 32.4 4.8
3 -2 -7 1471.25 26.2
-3 2 7 1444.96 24.8
3 2 -7 1474.55 19.8
3 2 -7 1465.65 27.6
2 -2 -7 15.3 2.6
2 2 -7 12.6 2.7
2 2 -7 15.7 2
1 -2 -7 2036 28.9
1 -2 -7 2088.59 30.7
1 2 -7 2067.79 28.1
0 -2 -7 478.25 11.6
0 -2 7 489.55 10.9
0 2 -7 488.95 9.3
0 2 -7 470.85 11.1
1 -2 7 24.5 3
-1 -2 -7 27.9 3.5
-1 -2 -7 28.6 3.3
-1 2 -7 24.3 2.2
1 2 7 29.3 3.3
-1 2 -7 28 3.4
-2 -2 -7 28.5 3.5
2 -2 7 23.4 3.4
2 -2 7 23.3 2.4
-2 -2 -7 27.9 3.8
-2 -2 -7 24.7 3.5
-2 2 -7 21.8 3.6
2 2 7 25.6 3.3
-2 2 -7 31.5 2.8
-3 -2 -7 22.9 3.8
-3 -2 -7 22 3.5
3 -2 7 17.1 2.5
-3 -2 -7 22.2 3.3
-3 2 -7 23.9 4
-3 2 -7 24.9 2.9
-4 -2 -7 3.4 2.2
4 -2 7 -0.5 1.4
-4 -2 -7 0.2 1.8
-4 2 -7 1.4 1.6
-4 2 -7 3.3 2.5
-5 -2 -7 12.3 3.4
-5 -2 -7 16.8 3.6
-5 2 -7 15.8 4
-6 -2 -7 2.4 2.5
-6 -2 -7 1.4 2.4
-6 2 -7 4.6 3
-7 -2 -7 266.57 13.1
-7 -2 -7 281.47 13.3
-7 2 -7 253.37 13.2
-8 -2 -7 39.5 6.4
7 -3 -7 460.75 20
7 3 -7 444.56 20.2
6 -3 -7 66.99 8.5
6 3 -7 54.09 7.8
5 -3 -7 5.4 3.1
5 3 -7 7.5 3.2
4 -3 -7 1626.44 30.4
4 3 -7 1572.84 31.5
3 -3 -7 1175.28 22.6
3 3 -7 1178.78 24.5
-3 3 7 1174.78 21.1
2 -3 -7 718.43 14.7
2 3 -7 719.83 12.2
2 3 -7 704.63 16.9
1 -3 -7 714.83 13.3
1 -3 -7 717.93 15.6
1 3 -7 690.83 13.1
0 -3 -7 1009.7 18.8
0 -3 7 1001.6 17.2
0 3 -7 997.8 14.1
0 3 -7 974.7 17.7
1 -3 7 3100.89 41.6
-1 -3 -7 3135.39 42.1
-1 -3 -7 3132.69 42.8
-1 3 -7 3094.79 42.3
-1 3 -7 3142.69 35.2
1 3 7 3130.39 41.9
-2 -3 -7 200.98 8
2 -3 7 202.98 5.3
-2 -3 -7 193.88 8.2
-2 -3 -7 204.08 7.9
-2 3 -7 202.08 5.4
2 3 7 213.28 8
-2 3 -7 203.58 8.5
-3 -3 -7 43.6 5.1
3 -3 7 39.2 3
-3 -3 -7 37.7 4.5
-3 -3 -7 38.8 4.6
-3 3 -7 40.6 5.1
-3 3 -7 39.4 3.4
-4 -3 -7 6.5 2.5
4 -3 7 5.4 1.8
-4 -3 -7 8.3 2.7
-4 3 -7 4.4 2.4
-5 -3 -7 701.63 19.1
-5 -3 -7 701.23 18.9
-5 3 -7 682.03 19.7
-6 -3 -7 34.8 5.7
-6 -3 -7 40.1 6.3
-6 3 -7 43.1 6.3
-7 -3 -7 229.98 12.4
-7 -3 -7 197.58 11.4
-7 3 -7 212.78 12.2
-8 -3 -7 3.8 3.2
7 -4 -7 280.17 15.7
7 4 -7 312.87 17
6 -4 -7 80.19 9.1
6 4 -7 83.09 9.4
5 -4 -7 55.09 6.9
5 4 -7 62.49 7.4
4 -4 -7 1240.98 25.8
4 4 -7 1261.17 27.7
3 -4 -7 37.4 4.4
-3 4 7 43.9 4.2
3 4 -7 41.1 5.6
3 4 -7 44.8 4.5
2 -4 -7 53.89 3.8
2 4 -7 66.89 3.9
2 4 -7 47.4 5.2
2 4 -7 59.39 3
1 -4 -7 1130.39 21.7
-1 -4 7 1139.89 17.8
1 -4 -7 1187.88 17.9
1 4 -7 1172.98 18.4
0 -4 -7 528.65 13.3
0 -4 7 512.35 11.5
0 4 -7 517.75 12
-1 -4 -7 474.55 10.7
1 -4 7 460.85 11.9
-1 -4 -7 457.05 12.4
-1 4 -7 466.05 12.3
1 4 7 452.55 12.2
-2 -4 -7 355.96 10.2
-2 -4 -7 369.86 11.5
-2 -4 -7 357.56 11.4
-2 4 -7 353.36 11.5
-3 -4 -7 92.99 6.2
-3 -4 -7 85.79 5.6
3 -4 7 90.19 3.9
-3 -4 -7 77.09 5.8
-3 4 -7 93.29 6.6
-4 -4 -7 99.39 6.8
-4 -4 -7 96.09 7
4 -4 7 99.09 5.1
-4 4 -7 88.69 7
-5 -4 -7 31.8 5.1
-5 -4 -7 36.1 5.7
-5 4 -7 32.5 5.5
-6 -4 -7 29.4 5.5
-6 -4 -7 46.5 6.1
-6 4 -7 37.7 6.2
-7 -4 -7 401.66 15.8
-7 -4 -7 407.36 16.7
-7 4 -7 369.96 16.4
7 -5 -7 186.48 12.9
6 -5 -7 63.99 8.5
6 5 -7 54.99 8.2
5 -5 -7 18.1 4.3
5 5 -7 15.5 4.3
4 -5 -7 63.79 6.6
4 5 -7 71.79 7.5
3 -5 -7 58.09 5.4
-3 5 7 49.3 3.9
3 5 -7 58.49 4.4
3 5 -7 51.69 5.9
2 -5 -7 1192.28 19.7
2 -5 -7 1169.48 23.3
2 5 -7 1155.08 18.9
2 5 -7 1167.78 23.9
2 5 -7 1145.19 16.4
1 -5 -7 1256.27 18.1
-1 -5 7 1251.97 19.1
1 -5 -7 1238.38 23.5
1 5 -7 1230.48 17.4
1 5 -7 1248.88 19.4
0 -5 -7 699.63 16.4
0 -5 7 717.33 14.3
0 5 -7 700.83 14.6
-1 -5 -7 1762.82 24.5
-1 -5 -7 1814.92 29.8
1 -5 7 1745.43 27.9
-1 5 -7 1779.32 28.7
-2 -5 -7 3.9 2.1
-2 -5 -7 6.4 2.2
-2 -5 -7 13.5 2.4
-2 5 -7 9.3 2.6
-3 -5 -7 6.7 2.5
-3 -5 -7 7.8 2.2
-3 -5 -7 8 2.5
-3 5 -7 4.4 2.3
-4 -5 -7 177.28 8.9
4 -5 7 158.88 6
-4 -5 -7 168.08 9.2
-4 5 -7 152.68 9
-5 -5 -7 1323.97 28.8
-5 -5 -7 1328.27 27.6
-5 5 -7 1337.27 29.7
-6 -5 -7 15.2 4.4
-6 -5 -7 8.7 3.5
-6 5 -7 10.6 3.8
-7 -5 -7 38.7 6.1
-7 -5 -7 43.2 7
7 -6 -7 35.2 7.2
6 -6 -7 189.28 11.8
6 6 -7 157.58 11.6
5 -6 -7 20.4 4.7
5 6 -7 20.8 5.1
4 -6 -7 106.19 7.2
-4 6 7 118.29 6.6
4 6 -7 114.69 8.4
3 -6 -7 1180.48 22.3
3 6 -7 1197.48 21.3
3 6 -7 1204.78 26.1
-3 6 7 1167.48 20.2
2 -6 -7 26.1 4
2 -6 -7 31.6 3.2
2 6 -7 25.8 4
2 6 -7 29.1 2.2
2 6 -7 35.8 3.5
-1 -6 7 328.87 8.4
1 -6 -7 314.57 11.2
1 6 -7 331.97 8.6
1 6 -7 320.47 6.8
0 -6 7 357.66 9.9
0 -6 -7 360.26 11.8
0 6 -7 369.46 10.3
-1 -6 -7 101.69 6.5
1 -6 7 87.99 5.7
-1 6 -7 108.89 6.3
-2 -6 -7 211.48 9.1
-2 -6 -7 200.98 6.4
-2 -6 -7 199.68 9.2
-2 6 -7 202.18 9
-3 -6 -7 518.85 14.9
-3 -6 -7 511.15 15.6
-3 -6 -7 505.15 12.8
-3 6 -7 519.85 15.6
-4 -6 -7 864.41 20.6
-4 -6 -7 814.72 19.1
-4 -6 -7 850.81 21.6
-4 6 -7 854.21 22
-5 -6 -7 39.6 5.7
-5 -6 -7 24.8 5
-5 6 -7 34.1 5.4
-6 -6 -7 6 3.5
-6 -6 -7 3.7 2.8
-6 6 -7 5.8 3.2
-7 -6 -7 778.72 22.2
7 -7 -7 43.3 7.9
6 -7 -7 6.8 3.4
6 7 -7 -0.7 2.9
5 -7 -7 26.3 5.3
5 7 -7 16.9 4.5
4 -7 -7 191.68 9.3
-4 7 7 185.08 8
4 7 -7 191.68 10.9
3 -7 -7 511.55 16
3 -7 -7 502.65 13.2
3 7 -7 542.95 16.9
-3 7 7 518.25 11.7
3 7 -7 519.65 13
2 -7 -7 1050.89 23.2
2 7 -7 1059.69 15.3
2 7 -7 1043.3 17.5
2 7 -7 1039.1 23.5
1 -7 -7 299.37 11.3
-1 -7 7 289.47 8.1
1 7 -7 312.27 8.4
0 -7 7 514.95 12.4
0 -7 -7 518.95 15
0 7 -7 506.25 12.6
-1 -7 -7 1002.9 22
-1 7 -7 1003 20.5
-2 -7 -7 159.88 8.7
-2 7 -7 169.28 8.4
-3 -7 -7 32.5 4.6
-3 -7 -7 34.8 5.2
-3 -7 -7 36.6 3.7
-3 7 -7 37.2 5
-4 -7 -7 441.36 14.4
-4 -7 -7 437.06 15.6
-4 7 -7 413.66 15.3
-5 -7 -7 109.19 7.8
-5 -7 -7 116.39 9.2
-5 7 -7 105.19 9.8
-6 -7 -7 10.2 3.5
-6 -7 -7 3.8 3.6
-6 7 -7 6.6 3.3
-7 -7 -7 67.99 8
6 -8 -7 3.6 3.4
6 8 -7 3.1 3.6
5 -8 -7 8.4 3.4
5 8 -7 10.5 4
4 -8 -7 8 2.9
4 8 -7 10.3 4.1
3 -8 -7 410.46 11.3
3 -8 -7 415.36 14.7
3 8 -7 411.86 11.5
-3 8 7 404.96 10.3
3 8 -7 406.96 15
-2 -8 7 1.6 1.1
2 -8 -7 4.9 2.2
2 8 -7 1.7 1.3
2 8 -7 4.9 2.6
-1 -8 7 126.49 5.6
1 -8 -7 126.29 7.7
1 8 -7 132.09 5.6
0 -8 7 718.23 15.7
0 -8 -7 690.03 18.2
0 8 -7 686.53 15.4
-1 -8 -7 14.5 3.2
-1 8 -7 9.8 2.6
-2 -8 -7 4.5 2.5
-2 8 -7 8.7 2.8
-3 -8 -7 90.09 6.7
-3 -8 -7 88.19 8.4
-3 8 -7 97.29 7.2
-4 -8 -7 24.9 4.4
-4 -8 -7 30 5.4
-4 8 -7 25.4 5
-5 -8 -7 0.3 2.2
-5 -8 -7 -4.7 2.3
-5 8 -7 2.5 2.6
-6 -8 -7 2.1 2.7
-6 -8 -7 1.3 3.5
5 9 -7 3.8 3.1
4 -9 -7 292.87 13.3
4 9 -7 271.87 13.6
3 -9 -7 571.44 18.1
3 9 -7 588.24 18.7
2 -9 -7 255.17 11.5
2 9 -7 248.58 11.5
1 -9 -7 604.34 17.5
-1 -9 7 565.54 12.8
1 9 -7 578.44 12.8
0 -9 -7 360.66 13.3
0 9 -7 342.27 10.7
-1 -9 -7 1003.4 23.5
-1 9 -7 957.4 20.9
-2 -9 -7 208.38 10.6
-2 9 -7 208.68 9.8
-3 -9 -7 29 5.4
-3 -9 -7 24.6 4.3
-3 9 -7 29.7 4.8
-4 -9 -7 32.3 5
-4 -9 -7 34 6
-4 9 -7 50.29 6.6
-5 -9 -7 461.85 18.1
-5 -9 -7 432.56 15.4
-5 9 -7 432.16 17.3
-6 -9 -7 29.4 5.4
5 -10 -7 64.19 8.3
5 10 -7 72.69 9.4
4 -10 -7 23.5 5
4 10 -7 21.7 5.2
3 -10 -7 587.04 18.6
3 10 -7 565.34 18.9
2 -10 -7 478.65 16.3
2 10 -7 488.35 16.5
1 -10 -7 153.38 9.2
1 10 -7 160.58 6.7
0 -10 -7 -0.3 1.9
0 10 -7 0.8 1.4
-1 -10 -7 52.29 6.4
-1 10 -7 41.8 5.1
-2 -10 -7 484.85 16.8
-2 10 -7 518.15 16.1
-3 -10 -7 39.7 5.4
-3 -10 -7 36.1 5.8
-3 10 -7 38.1 5.9
-4 -10 -7 5.5 2.8
-4 -10 -7 5.1 3.5
-4 10 -7 10 3.5
-5 -10 -7 55.49 8.4
-5 -10 -7 49.3 6.4
-5 10 -7 54.49 7.7
5 -11 -7 22.8 5.2
5 11 -7 24.3 5.9
4 -11 -7 258.57 13.1
4 11 -7 240.58 13.4
3 -11 -7 150.68 9.9
3 11 -7 158.38 10.5
2 -11 -7 10 3.5
2 11 -7 16.4 4.4
1 -11 -7 448.36 16.1
1 11 -7 465.35 16.2
0 -11 -7 337.47 13.9
0 11 -7 343.17 11.4
-1 -11 -7 371.46 14.7
-1 11 -7 364.76 12.8
-2 -11 -7 83.79 8.7
-2 11 -7 90.69 7.2
-3 -11 -7 -0.4 2.3
-3 -11 -7 3.1 2.9
-3 11 -7 3 2.4
-4 -11 -7 22.4 4.5
-4 -11 -7 25.1 5.8
-4 11 -7 16.6 4.4
-5 -11 -7 492.85 17.1
4 -12 -7 7.4 3.5
4 12 -7 18.7 5.1
3 -12 -7 177.58 11
3 12 -7 171.18 11.2
2 -12 -7 42.3 6.2
2 12 -7 41.8 6.2
1 -12 -7 120.39 8.9
1 12 -7 114.69 8.5
0 -12 -7 353.36 14.8
-1 -12 -7 91.59 9
-1 12 -7 75.79 7.1
-2 -12 -7 101.39 9.8
-2 12 -7 108.19 8.1
-3 -12 -7 2.8 3.2
-3 12 -7 0.1 2.3
-4 -12 -7 1.9 2.6
-4 12 -7 4.2 3.2
-5 -12 -7 16.8 4.4
4 13 -7 45.7 7.2
3 -13 -7 167.78 11.2
3 13 -7 147.69 10.7
2 -13 -7 190.98 11.6
2 13 -7 200.18 11.6
1 -13 -7 69.59 8.1
1 13 -7 69.19 7.9
0 -13 -7 197.28 11.6
-1 -13 -7 412.16 16.7
-2 -13 -7 13.1 4.5
-2 13 -7 9.2 3.5
-3 13 -7 12.8 4.2
-4 -13 -7 6.7 3.3
3 14 -7 55.59 7.8
2 -14 -7 3.6 3
2 14 -7 2.9 3.2
1 -14 -7 87.29 9.3
1 14 -7 91.99 9.2
0 -14 -7 34 6.5
-1 -14 -7 4.4 3.2
2 15 -7 173.38 11.5
1 15 -7 1.7 3.2
0 15 -7 176.58 11.1
7 0 -8 37.8 7.5
6 0 -8 74.99 9.2
5 0 -8 4.6 2.9
4 0 -8 653.03 18.5
4 0 -8 656.93 13.2
3 0 -8 972.2 21.5
2 0 -8 232.38 8.9
1 0 -8 492.55 11.7
1 0 -8 479.55 12.4
1 0 -8 492.65 11.7
0 0 -8 98.29 4.8
0 0 -8 98.69 5.4
-1 0 -8 811.22 15.1
-1 0 -8 784.82 17.1
-2 0 -8 12.1 2.8
-2 0 -8 16.9 3.1
-2 0 -8 11.3 2.3
2 0 8 15 2.5
-3 0 -8 231.18 10.1
-3 0 -8 236.48 8.5
3 0 8 232.18 8.3
-4 0 -8 117.09 6.6
-5 0 -8 1.1 2.4
-5 0 -8 7.6 2.7
-6 0 -8 16.7 4.5
-6 0 -8 13.2 3.5
-7 0 -8 22.6 5.3
7 -1 -8 2.8 3.5
7 1 -8 -0.4 2.8
6 -1 -8 66.09 8.8
6 1 -8 56.69 7.8
5 -1 -8 1232.68 29.1
5 1 -8 1235.38 29.2
4 -1 -8 18 2.9
4 -1 -8 21.8 4
4 1 -8 26.7 4.7
4 1 -8 21.7 2.5
3 -1 -8 305.37 11
3 1 -8 313.57 11.5
3 1 -8 307.77 8
2 -1 -8 287.57 9.6
2 1 -8 286.37 8
2 1 -8 286.97 10.2
1 -1 -8 112.19 5.7
1 -1 -8 113.89 5.6
1 1 -8 120.69 5.4
0 -1 -8 1.8 1.7
0 -1 -8 3 1.4
0 1 -8 4.5 1.7
0 1 -8 3.4 1.3
-1 -1 -8 308.37 9.1
-1 -1 -8 322.07 10.4
-1 1 -8 330.67 10.4
-1 1 -8 324.27 8.3
1 1 8 338.77 9.4
-2 -1 -8 464.45 11.8
2 -1 8 469.15 10.6
-2 -1 -8 465.15 13.9
-2 -1 -8 456.35 13.2
2 1 8 457.35 11.7
-2 1 -8 473.55 10.7
-2 1 -8 464.45 13.4
-3 -1 -8 2325.47 34.7
3 -1 8 2330.97 32.8
-3 -1 -8 2327.17 37.6
-3 1 -8 2330.07 33
-3 1 -8 2364.66 38.2
3 1 8 2280.47 34.8
-4 -1 -8 121.99 7.9
-4 -1 -8 121.29 7.1
-4 1 -8 122.29 8
-4 1 -8 132.69 6.7
-5 -1 -8 457.25 14.5
-5 -1 -8 422.76 15.3
-5 1 -8 445.46 13.5
-5 1 -8 440.36 15.8
-6 -1 -8 115.99 8.2
-6 -1 -8 136.09 9.3
-6 1 -8 122.79 9.3
-7 -1 -8 -0.2 2.8
-7 1 -8 1.1 2.7
7 -2 -8 60.39 9.2
7 2 -8 48.4 8.3
6 -2 -8 42.1 7.1
6 2 -8 42.6 6.9
5 -2 -8 1258.27 29.2
5 2 -8 1347.87 30.8
4 -2 -8 210.08 8
4 -2 -8 192.78 9.8
4 2 -8 199.08 5.5
4 2 -8 211.78 10.6
3 -2 -8 2633.64 40.7
3 2 -8 2718.33 42.9
3 2 -8 2711.03 33.6
2 -2 -8 204.68 7.8
2 2 -8 200.18 6.4
2 2 -8 204.48 8.8
1 -2 -8 47.7 3.6
1 -2 -8 46.3 4.5
1 2 -8 49.99 3.6
0 -2 -8 48.9 4.7
0 -2 -8 43.6 4.3
0 2 -8 53.89 4.1
0 2 -8 49.7 3.1
-1 -2 -8 1355.86 23.1
-1 -2 -8 1389.76 24.6
1 -2 8 1360.16 23.5
-1 2 -8 1375.46 24.3
1 2 8 1404.26 23.4
-1 2 -8 1356.66 19.5
-2 -2 -8 73.49 5.4
-2 -2 -8 81.69 5.7
-2 -2 -8 83.19 5.3
2 -2 8 83.29 4
2 2 8 77.89 5.1
-2 2 -8 72.19 5.6
-2 2 -8 88.29 4.2
-3 -2 -8 83.39 5.7
3 -2 8 79.19 4.5
-3 -2 -8 70.89 6.6
-3 -2 -8 77.79 6.1
-3 2 -8 85.29 4.7
-3 2 -8 73.89 6.9
4 -2 8 623.64 14.3
-4 -2 -8 603.64 16.1
-4 -2 -8 627.94 17.6
-4 2 -8 611.74 14.3
-4 2 -8 616.44 17.9
-5 -2 -8 27.9 4.7
-5 -2 -8 31 5.4
-5 2 -8 33.1 5.4
-6 -2 -8 311.57 13.3
-6 -2 -8 304.77 13.5
-6 2 -8 308.67 14
-7 -2 -8 53.29 7
-7 -2 -8 81.29 8.9
-7 2 -8 64.39 8.6
7 -3 -8 35.8 7.1
7 3 -8 36.7 7.3
6 -3 -8 44.8 6.9
6 3 -8 43 6.9
5 -3 -8 215.18 11.4
5 3 -8 233.18 12.4
4 -3 -8 144.89 8.4
4 3 -8 125.89 8.4
3 -3 -8 825.42 18.4
3 3 -8 779.12 20
3 3 -8 812.22 12.8
2 -3 -8 58.19 4.2
2 3 -8 57.99 3.5
2 3 -8 66.89 5.4
1 -3 -8 0.3 1.1
1 -3 -8 -1.5 0.9
1 3 -8 2.4 1.4
0 -3 -8 318.57 10.2
0 -3 8 331.17 9.3
0 3 -8 315.97 7.1
0 3 -8 318.97 9.6
1 -3 8 6.7 2
-1 -3 -8 4.2 1.9
-1 -3 -8 4.2 1.8
-1 3 -8 4.3 1.9
-1 3 -8 6.4 1.3
1 3 8 6.3 2
-2 -3 -8 678.73 15.9
-2 -3 -8 654.53 16.4
2 -3 8 635.94 11.3
-2 -3 -8 663.33 15.9
-2 3 -8 667.63 11.5
-2 3 -8 632.14 16.3
-3 -3 -8 505.35 14.9
-3 -3 -8 518.05 14.3
-3 -3 -8 537.55 15.3
3 -3 8 512.45 10.9
-3 3 -8 494.05 10.8
-3 3 -8 517.45 15.5
4 -3 8 784.62 15.8
-4 -3 -8 774.92 19.3
-4 -3 -8 789.42 20
-4 3 -8 792.72 15.8
-4 3 -8 809.12 21.1
-5 -3 -8 835.62 21.8
-5 -3 -8 788.72 20.7
-5 3 -8 848.12 22.8
-6 -3 -8 213.98 11.6
-6 -3 -8 226.58 11.9
-6 3 -8 241.28 12.7
-7 -3 -8 31.6 5.8
-7 -3 -8 27.9 5.6
-7 3 -8 25.5 5.9
7 -4 -8 40.3 7.8
6 -4 -8 60.99 8.4
6 4 -8 74.79 9.1
5 -4 -8 686.73 20.4
5 4 -8 642.34 21.1
4 -4 -8 292.37 11.7
4 4 -8 302.47 13.1
3 -4 -8 706.73 16.7
3 4 -8 696.93 19
3 4 -8 698.33 15.5
2 -4 -8 1159.18 20.3
2 -4 -8 1157.68 23.3
2 4 -8 1169.08 17.8
2 4 -8 1129.59 23.9
1 -4 -8 162.58 7.7
1 -4 -8 170.78 5.9
1 4 -8 159.58 6.2
0 -4 8 13.8 2.5
0 -4 -8 13.3 2.8
0 4 -8 18.7 2.9
1 -4 8 2284.57 34.9
-1 -4 -8 2359.36 36.4
-1 -4 -8 2398.46 33.6
-1 -4 -8 2366.46 36
-1 4 -8 2356.86 35.6
-2 -4 -8 1363.16 26
-2 -4 -8 1406.86 24.5
-2 -4 -8 1425.86 26.1
-2 4 -8 1379.46 26.3
-3 -4 -8 69.09 6.4
3 -4 8 64.19 3.5
-3 -4 -8 61.59 6.3
-3 -4 -8 68.99 5.3
-3 4 -8 62.69 6.3
-4 -4 -8 162.88 8.9
-4 -4 -8 162.28 8.9
4 -4 8 163.08 6.4
-4 4 -8 163.18 9.5
-5 -4 -8 194.58 10.4
-5 -4 -8 186.28 10.4
-5 4 -8 180.28 10.7
-6 -4 -8 278.57 13
-6 -4 -8 286.47 13.3
-6 4 -8 291.37 14
-7 -4 -8 28.7 5.8
-7 -4 -8 21.4 5.1
7 -5 -8 75.09 9.9
6 -5 -8 5.9 3.6
6 5 -8 17.5 5.3
5 -5 -8 427.86 15.8
5 5 -8 405.36 16.8
4 -5 -8 76.09 7.4
4 5 -8 49.1 6.4
3 -5 -8 122.09 6.7
3 5 -8 115.79 6.2
3 5 -8 122.89 8
2 -5 -8 15 3.5
2 -5 -8 16 2.7
2 5 -8 14.6 2
2 5 -8 14.4 2.4
2 5 -8 10.2 2.8
1 -5 -8 49.9 3.1
1 -5 -8 41.8 5
-1 -5 8 41.3 3.6
1 5 -8 42.3 3.8
1 5 -8 46.6 2.9
0 -5 -8 1380.66 25.7
0 -5 8 1357.26 22.7
0 -5 -8 1359.36 19.2
0 5 -8 1367.26 23.5
-1 -5 -8 1321.97 20.9
-1 -5 -8 1332.47 25.3
-1 5 -8 1337.67 24.4
-2 -5 -8 533.45 15.2
-2 -5 -8 532.05 15.1
-2 -5 -8 551.24 13
-2 5 -8 554.94 15.5
-3 -5 -8 263.77 9.8
-3 -5 -8 270.07 11
-3 -5 -8 278.07 11.3
-3 5 -8 275.37 11.4
-4 -5 -8 833.82 21.2
-4 -5 -8 846.12 21.1
-4 5 -8 852.31 22.3
-5 -5 -8 751.82 21.3
-5 -5 -8 785.02 21.2
-5 5 -8 780.92 22.4
-6 -5 -8 72.39 8.1
-6 -5 -8 69.29 8.1
-6 5 -8 83.59 9.4
-7 -5 -8 23 5.2
7 -6 -8 83.49 10.7
6 -6 -8 15.8 4.5
6 6 -8 15 5.3
5 -6 -8 509.65 17.4
5 6 -8 497.15 19
4 -6 -8 256.17 10.9
4 6 -8 258.17 12.7
3 -6 -8 594.04 17.5
3 -6 -8 648.44 15.5
3 6 -8 620.84 14.5
3 6 -8 626.44 18.5
2 -6 -8 1033.6 23
2 -6 -8 1020.5 18
2 6 -8 1003.5 17.3
2 6 -8 1014.6 23.4
2 6 -8 1038.2 15.9
-1 -6 8 -0.9 1.1
1 -6 -8 2.2 1.9
1 6 -8 -1.1 1.1
1 6 -8 1.6 1.1
0 -6 -8 84.19 6.2
0 -6 8 92.49 5.3
0 6 -8 87.19 5.4
-1 -6 -8 135.89 7.8
-1 6 -8 150.78 7.6
-2 -6 -8 113.69 7.3
-2 -6 -8 113.79 5.2
-2 -6 -8 109.79 7.1
-2 6 -8 109.19 7
-3 -6 -8 261.47 11.1
-3 -6 -8 254.97 9.1
-3 -6 -8 249.78 11.2
-3 6 -8 264.47 11.5
-4 -6 -8 316.67 13.2
-4 -6 -8 321.97 12.6
-4 6 -8 294.47 12.9
-5 -6 -8 461.65 16.9
-5 -6 -8 445.26 15.6
-5 6 -8 474.75 17.5
-6 -6 -8 234.88 12.2
-6 -6 -8 235.28 13
-6 6 -8 234.88 13
-7 -6 -8 10.7 4.4
6 -7 -8 37.1 6.6
6 7 -8 29.5 6.9
5 -7 -8 580.64 18.6
5 7 -8 569.24 20.7
4 -7 -8 70.09 7
4 7 -8 63.19 8.4
3 -7 -8 238.68 11.3
3 -7 -8 228.08 8.8
3 7 -8 228.08 11.3
3 7 -8 223.08 8.4
2 -7 -8 87.19 6.8
2 -7 -8 105.29 4.8
2 7 -8 126.39 8.1
2 7 -8 104.59 4.2
2 7 -8 99.19 4.8
1 -7 -8 475.05 15
-1 -7 8 487.05 11.3
1 7 -8 485.45 11.5
0 -7 8 255.07 8.9
0 -7 -8 244.58 10.6
0 7 -8 258.27 9.1
-1 -7 -8 190.18 9.5
-1 7 -8 201.78 8.9
-2 -7 -8 2.7 2.1
-2 -7 -8 3 2.4
-2 7 -8 7.3 2.6
-3 -7 -8 171.38 9.7
-3 -7 -8 201.88 9.9
-3 7 -8 180.28 9.7
-4 -7 -8 99.39 7.5
-4 -7 -8 89.89 8.7
-4 7 -8 89.99 8.3
-5 -7 -8 10.3 3.4
-5 -7 -8 9.9 4.1
-5 7 -8 9.1 3.7
-6 -7 -8 156.48 10.1
-6 -7 -8 153.38 11.1
-7 -7 -8 2.6 3.4
5 8 -8 118.29 11.6
4 -8 -8 639.34 19.9
4 -8 -8 616.04 17.1
4 8 -8 628.24 20.9
3 -8 -8 1139.49 26.4
3 -8 -8 1116.79 20.8
3 8 -8 1134.19 27.1
-2 -8 8 575.44 11.7
2 -8 -8 573.64 17.4
2 8 -8 562.84 17.7
2 8 -8 559.14 10.8
-1 -8 8 0.3 1.5
1 -8 -8 3.4 2.3
1 8 -8 -1.4 1.2
0 -8 -8 12.9 3.2
0 8 -8 13.3 2.7
-1 -8 -8 920.41 22.2
-1 8 -8 898.71 20.1
-2 -8 -8 83.49 8.4
-2 8 -8 106.29 7.2
-3 -8 -8 39.5 5.6
-3 -8 -8 34.9 5.7
-3 8 -8 50.19 6
-4 -8 -8 351.16 13.6
-4 -8 -8 339.17 14.7
-4 8 -8 333.37 14.3
-5 -8 -8 1.4 2.5
-5 -8 -8 -6.9 2.3
-5 8 -8 1.4 3.1
-6 -8 -8 107.89 9.6
5 -9 -8 341.77 15.4
5 9 -8 343.57 16.6
4 -9 -8 65.79 8
4 9 -8 47.2 6.9
3 -9 -8 141.59 9.4
3 9 -8 152.58 9.9
2 -9 -8 23.3 4.7
2 9 -8 24.3 4.6
-1 -9 8 41.1 4.2
1 -9 -8 32 5.1
1 9 -8 37.5 3.8
0 -9 -8 45.1 5.7
0 9 -8 39.6 4.5
-1 -9 -8 28.6 4.8
-1 9 -8 40.4 5.1
-2 -9 -8 265.67 12.2
-2 9 -8 255.57 11.2
-3 -9 -8 761.82 22
-3 -9 -8 779.62 20.7
-3 9 -8 749.92 21.1
-4 -9 -8 186.18 10.3
-4 -9 -8 177.68 11.2
-4 9 -8 196.18 11.2
-5 -9 -8 570.54 18.5
-5 -9 -8 538.85 19.9
-5 9 -8 567.04 20.2
-6 -9 -8 79.39 8.6
5 -10 -8 141.59 10.7
5 10 -8 160.28 11.8
4 -10 -8 101.19 9.9
4 10 -8 91.09 9.7
3 -10 -8 578.04 19.2
3 10 -8 609.54 20.1
2 -10 -8 49 6.6
2 10 -8 44.3 6.4
1 -10 -8 770.92 21.5
1 10 -8 763.82 16
0 -10 -8 168.48 10
0 10 -8 169.38 7.9
-1 -10 -8 762.42 21.4
-1 10 -8 726.43 18.7
-2 -10 -8 76.59 8.2
-2 10 -8 91.19 7.1
-3 -10 -8 96.19 8.8
-3 -10 -8 113.89 10
-3 10 -8 103.39 9.2
-4 -10 -8 118.69 10.7
-4 -10 -8 143.79 9.4
-4 10 -8 135.99 9.8
-5 -10 -8 33.5 5.9
-6 -10 -8 69.49 8.2
4 -11 -8 33.9 6.1
4 11 -8 24.5 5.9
3 -11 -8 151.98 10.3
3 11 -8 173.38 11.1
2 -11 -8 -1 2.2
2 11 -8 -1.1 2.3
1 -11 -8 10.6 3.7
1 11 -8 14.4 4.1
0 -11 -8 17.4 4.7
0 11 -8 15.1 3.5
-1 -11 -8 144.49 9.7
-1 11 -8 146.79 8.6
-2 -11 -8 191.98 11.5
-2 11 -8 202.88 10.6
-3 -11 -8 294.87 14.5
-3 -11 -8 273.47 12.8
-3 11 -8 261.27 12.8
-4 -11 -8 96.79 10.9
-4 -11 -8 76.49 8
-4 11 -8 95.69 9.7
-5 -11 -8 332.77 14.6
4 12 -8 1.9 3.6
3 -12 -8 266.77 13.8
3 12 -8 279.37 14.5
2 -12 -8 203.98 11.8
2 12 -8 199.88 11.8
1 -12 -8 174.48 11
1 12 -8 190.68 11.1
0 -12 -8 10.9 4
0 12 -8 9.9 2.9
-1 -12 -8 325.47 14.8
-1 12 -8 323.97 12.7
-2 -12 -8 21.3 4.8
-2 12 -8 23.1 4.7
-3 -12 -8 -0.6 2.8
-3 -12 -8 4.6 3.5
-3 12 -8 -1.1 2.2
-4 -12 -8 47.7 6.5
3 13 -8 54.49 8.4
2 -13 -8 113.19 11
2 13 -8 102.29 10.3
1 -13 -8 73.39 9
1 13 -8 72.99 8.4
0 -13 -8 86.19 9
-1 -13 -8 21.5 5.1
-1 13 -8 37.2 5.6
-2 -13 -8 44.9 7.3
-2 13 -8 50.99 6.8
-3 -13 -8 64.99 7.9
-3 13 -8 57.59 7.8
2 14 -8 57.69 8
1 14 -8 7.9 3.5
-2 14 -8 2.9 2.6
7 0 -9 152.58 12.4
6 0 -9 1.8 3.2
5 0 -9 102.39 9.7
4 0 -9 4039.6 60.39
3 0 -9 558.64 16.1
2 0 -9 19.3 3.2
2 0 -9 18.9 2.9
1 0 -9 523.55 12.9
1 0 -9 520.35 12.8
1 0 -9 534.85 13.8
0 0 -9 1950.3 30.6
0 0 -9 1907.61 28.4
-1 0 -9 2703.63 36.7
-1 0 -9 2731.23 40.3
-2 0 -9 861.11 19.6
2 0 9 852.11 16.8
-2 0 -9 839.42 16.7
3 0 9 196.08 7.9
-3 0 -9 190.38 7.9
-3 0 -9 188.68 9.5
-4 0 -9 166.78 8.1
-5 0 -9 366.06 13.1
-5 0 -9 366.96 14.8
-6 0 -9 -2.1 2.1
-6 0 -9 2.6 2.6
7 -1 -9 160.98 12.6
7 1 -9 149.49 14.4
6 -1 -9 1090.29 29.8
6 1 -9 1067.59 30
5 -1 -9 271.27 13.2
5 1 -9 281.97 13.6
4 -1 -9 87.89 7.2
4 1 -9 98.99 4.7
4 1 -9 94.69 7.5
3 -1 -9 73.39 5.8
3 1 -9 64.49 4.1
3 1 -9 57.89 6.3
2 -1 -9 156.28 7.4
2 1 -9 149.19 6.2
2 1 -9 168.08 8.1
1 -1 -9 1622.24 26.8
1 -1 -9 1608.64 26.4
1 -1 -9 1603.04 26.5
1 1 -9 1565.84 25.4
1 1 -9 1595.54 25
0 -1 -9 66.69 4.9
0 -1 -9 68.99 4.7
0 1 -9 70.79 4.2
0 1 -9 72.89 5
-1 -1 -9 6.3 1.9
-1 -1 -9 2.2 1.7
-1 1 -9 5.7 1.6
-1 1 -9 2.2 1.8
-2 -1 -9 363.46 12.9
-2 -1 -9 397.76 12.9
2 -1 9 395.86 10
-2 -1 -9 353.66 10.7
-2 1 -9 386.66 12.8
-2 1 -9 391.06 10.1
2 1 9 384.76 11
3 -1 9 231.48 8.2
-3 -1 -9 243.08 10.6
-3 -1 -9 241.28 9.2
-3 1 -9 226.98 8.2
-3 1 -9 229.38 10.5
-4 -1 -9 139.39 8.9
-4 -1 -9 157.98 8.2
-4 1 -9 142.59 7.2
-4 1 -9 143.99 9.1
-5 -1 -9 325.97 14.1
-5 -1 -9 342.47 13
-5 1 -9 339.07 12
-5 1 -9 336.47 14.3
-6 -1 -9 69.79 8
-6 -1 -9 73.19 7.6
-6 1 -9 51.79 7.3
-7 -1 -9 44 6.6
-7 -1 -9 33.8 6.4
7 -2 -9 79.59 10.4
6 -2 -9 7 3.5
6 2 -9 0.4 2.7
5 -2 -9 112.99 8.8
5 2 -9 117.59 9.2
4 -2 -9 -0.9 1.6
4 2 -9 2.7 2.4
4 2 -9 1.3 1.2
3 -2 -9 3.8 2.1
3 2 -9 4.1 2.3
3 2 -9 3.8 1.5
2 -2 -9 550.94 14.1
2 2 -9 547.85 15.4
2 2 -9 531.05 12
1 -2 -9 317.37 9.6
1 -2 -9 293.37 10.2
1 2 -9 328.67 9.6
1 2 -9 339.07 9.1
0 -2 -9 1697.53 28.7
0 -2 -9 1732.03 28
0 2 -9 1723.83 24.4
0 2 -9 1723.73 27.9
-1 -2 -9 2138.79 34.3
-1 -2 -9 2038.8 32
-1 2 -9 2120.49 28.1
-1 2 -9 2122.69 33.7
2 -2 9 904.61 15.9
-2 -2 -9 954.8 21.3
-2 -2 -9 921.41 20.9
-2 -2 -9 921.71 19.2
-2 2 -9 944.31 16.1
-2 2 -9 938.91 21
-3 -2 -9 49.1 5.2
3 -2 9 51.79 4
-3 -2 -9 43.4 5.3
-3 2 -9 44.1 5.9
-3 2 -9 50.29 4.4
-4 -2 -9 384.56 13.1
-4 -2 -9 388.36 14.3
4 -2 9 387.76 11.3
-4 2 -9 416.56 11.6
-4 2 -9 398.76 14.8
-5 -2 -9 806.32 20.6
-5 -2 -9 765.42 21.8
-5 2 -9 768.12 22.5
-5 2 -9 786.92 18.1
-6 -2 -9 0.3 2.6
-6 -2 -9 -0.2 2.6
-6 2 -9 -1.1 2.3
-7 -2 -9 -2.3 2.5
-7 -2 -9 5.2 3.3
7 -3 -9 -0.4 3.1
6 -3 -9 763.32 24.4
6 3 -9 802.02 25.9
5 -3 -9 6.9 3.5
5 3 -9 4.5 2.9
4 -3 -9 44.8 5.8
4 3 -9 51.09 6.8
3 -3 -9 77.59 5.9
3 3 -9 95.09 7.2
3 3 -9 85.49 4.1
2 -3 -9 20 3.7
2 -3 -9 22.9 3.5
2 3 -9 21.1 2.8
2 3 -9 14.6 3.2
1 -3 -9 168.68 7.9
1 -3 -9 173.38 6.7
1 3 -9 164.58 6.8
1 3 -9 171.08 6.1
0 -3 -9 3.4 1.7
0 -3 -9 3.5 2
0 3 -9 3.7 1.7
0 3 -9 6.4 1.5
-1 -3 -9 195.88 8.4
-1 -3 -9 193.78 8.9
-1 3 -9 220.78 9.2
-1 3 -9 199.48 5.7
-2 -3 -9 268.67 10.3
-2 -3 -9 277.37 10.9
-2 -3 -9 285.87 10.5
-2 3 -9 273.07 7.2
-2 3 -9 281.87 11.1
-3 -3 -9 53.19 5.6
-3 -3 -9 56.69 6.3
3 -3 9 56.79 3.7
-3 3 -9 49.99 3.7
-3 3 -9 49.7 6
-4 -3 -9 49.1 5.9
-4 -3 -9 60.39 6.2
-4 3 -9 60.49 6.9
-4 3 -9 62.19 4.4
-5 -3 -9 6.3 3.2
-5 -3 -9 10.3 3.9
-5 3 -9 3.1 3.1
-6 -3 -9 68.89 8
-6 -3 -9 64.39 7.7
-6 3 -9 59.99 7.9
-7 -3 -9 375.26 16.6
-7 -3 -9 397.16 16.7
7 -4 -9 6 4.2
6 -4 -9 12.4 4.5
6 4 -9 7.9 4
5 -4 -9 1 2.4
5 4 -9 5.3 3.2
4 -4 -9 175.28 9.4
4 4 -9 160.48 10
3 -4 -9 45.8 5.1
3 4 -9 42.3 5.5
2 -4 -9 374.16 10.8
2 -4 -9 378.26 12.9
2 4 -9 368.86 9.3
2 4 -9 382.16 13.4
1 -4 -9 825.22 19
1 -4 -9 825.52 15.7
1 4 -9 817.22 16.3
0 -4 -9 97.39 6.2
0 -4 -9 87.19 4.4
0 -4 9 98.39 5.5
0 4 -9 86.59 3.5
0 4 -9 97.59 5.9
-1 -4 -9 1386.06 25.9
-1 -4 -9 1371.96 26.4
-1 -4 -9 1401.56 24.1
-1 4 -9 1377.26 25.7
-2 -4 -9 166.58 8.4
-2 -4 -9 157.68 7.6
-2 -4 -9 157.08 8.5
-2 4 -9 187.98 9.1
3 -4 9 83.29 4
-3 -4 -9 70.39 6.8
-3 -4 -9 93.19 6.4
-3 -4 -9 89.49 6.7
-3 4 -9 90.89 7.2
-4 -4 -9 45.9 5.7
-4 -4 -9 30 4.9
-4 4 -9 32.3 5.3
-5 -4 -9 291.67 13.1
-5 -4 -9 282.67 13
-5 4 -9 297.57 14
-6 -4 -9 -0.2 2.4
-6 -4 -9 4.9 3.4
-6 4 -9 7.1 3.6
-7 -4 -9 0.2 3.3
7 -5 -9 194.28 13.5
6 -5 -9 225.38 13
6 5 -9 217.48 14
5 -5 -9 4.9 3
5 5 -9 2.4 3.1
4 -5 -9 1.6 2.4
4 5 -9 1.7 2.3
3 -5 -9 16.2 3.3
3 5 -9 7.1 3
2 -5 -9 129.49 6.1
2 -5 -9 134.39 8
2 5 -9 127.29 5.3
2 5 -9 137.79 8.4
2 5 -9 134.79 5.9
1 -5 -9 930.11 21.2
1 -5 -9 928.61 16.3
1 5 -9 950.6 14.9
1 5 -9 932.91 17.8
0 -5 9 212.88 8.1
0 -5 -9 216.88 6.4
0 -5 -9 221.58 9.6
0 5 -9 218.08 8.6
-1 -5 -9 947.71 17.7
-1 -5 -9 922.91 21.1
-1 -5 -9 943.91 21.3
-1 5 -9 956.3 20.8
-2 -5 -9 671.43 15.4
-2 -5 -9 664.93 17.9
-2 -5 -9 667.53 17.8
-2 5 -9 672.43 17.9
-3 -5 -9 80.49 5.9
-3 -5 -9 82.59 7.6
-3 -5 -9 95.69 7.1
-3 5 -9 74.29 7.2
-4 -5 -9 98.99 7.8
-4 -5 -9 104.99 9.1
-4 5 -9 105.99 8.3
-5 -5 -9 1.2 2.8
-5 -5 -9 6.3 3.5
-5 5 -9 3.6 2.9
-6 -5 -9 16.9 4.8
-6 -5 -9 14 4.4
-6 5 -9 12.8 4.4
6 -6 -9 47.8 7.5
6 6 -9 41.9 7.4
5 -6 -9 2.3 2.7
5 6 -9 1.1 2.8
4 -6 -9 388.86 13.7
4 6 -9 411.16 16.5
3 -6 -9 8.4 3
3 -6 -9 11.7 3
3 6 -9 13.5 3.6
2 -6 -9 334.67 12.9
2 -6 -9 366.56 9.9
2 6 -9 362.76 9.5
2 6 -9 315.67 13
2 6 -9 350.46 8.7
1 -6 -9 494.45 15.4
-1 -6 9 498.65 11.8
1 -6 -9 490.15 10.1
1 6 -9 506.05 12.3
1 6 -9 503.85 9.3
0 -6 -9 450.05 14.5
0 6 -9 436.66 12.4
-1 -6 -9 2993.9 45.4
-1 6 -9 2793.72 42.8
-2 -6 -9 561.24 16.8
-2 -6 -9 572.74 13
-2 -6 -9 598.54 17
-2 6 -9 543.05 16.3
-3 -6 -9 4.9 2.8
-3 -6 -9 4.7 2.5
-3 6 -9 4 2.4
-4 -6 -9 302.27 13.3
-4 -6 -9 299.77 13
-4 6 -9 276.27 13.1
-5 -6 -9 426.56 16
-5 -6 -9 412.16 16.4
-5 6 -9 460.15 17.7
-6 -6 -9 72.29 8.5
-6 -6 -9 62.09 7.7
5 -7 -9 69.19 7.8
5 7 -9 97.89 11
4 -7 -9 66.09 6.7
4 -7 -9 61.39 7.1
4 7 -9 61.29 7.6
3 -7 -9 1.1 2
3 -7 -9 3.4 1.9
3 7 -9 -1.4 1.9
2 -7 -9 0.6 1.7
2 -7 -9 0.8 1.3
2 7 -9 2.9 1.2
2 7 -9 3.6 2.3
1 -7 -9 728.13 19.5
-1 -7 9 707.53 14.8
1 7 -9 722.03 15.2
0 -7 -9 2.6 2.5
0 7 -9 4.3 2
-1 -7 -9 4.5 2.6
-1 7 -9 6.7 2.7
-2 -7 -9 273.37 11.7
-2 -7 -9 260.07 11.7
-2 7 -9 242.88 10.8
-3 -7 -9 1.4 2.5
-3 -7 -9 9.3 3.1
-3 7 -9 2.9 2.5
-4 -7 -9 154.98 10.1
-4 -7 -9 165.78 10
-4 7 -9 161.28 10.3
-5 -7 -9 12.2 3.9
-5 -7 -9 6 3.8
-5 7 -9 13.7 4.2
-6 -7 -9 151.48 10.5
5 8 -9 16.4 4.9
4 -8 -9 180.88 11.1
4 8 -9 186.48 11.7
3 -8 -9 230.98 11.9
3 8 -9 232.18 12.3
2 -8 -9 184.78 10.3
2 8 -9 196.88 10.8
2 8 -9 201.58 6.3
-1 -8 9 572.34 13.2
1 -8 -9 574.44 17.7
1 8 -9 563.14 13.3
0 -8 -9 278.77 12.2
0 8 -9 284.67 10.2
-1 -8 -9 935.51 23.1
-1 8 -9 889.81 20.8
-2 -8 -9 207.38 10.9
-2 -8 -9 196.38 10.3
-2 8 -9 201.28 10.1
-3 -8 -9 171.98 9.9
-3 -8 -9 183.08 10.6
-3 8 -9 164.78 9.8
-4 -8 -9 550.24 17.9
-4 -8 -9 556.04 19.1
-4 8 -9 531.25 18.6
-5 -8 -9 441.46 17.9
-5 -8 -9 425.96 16.4
-5 8 -9 414.06 17.4
-6 -8 -9 27.7 5.7
5 -9 -9 308.57 16.3
5 9 -9 353.36 17.7
4 -9 -9 24.2 5.1
4 9 -9 33.1 6.4
3 -9 -9 -1.6 2
3 9 -9 -0.1 2.5
2 -9 -9 152.78 9.7
2 9 -9 150.78 9.8
1 -9 -9 136.09 9.1
1 9 -9 149.09 6.7
0 -9 -9 28.2 5.2
0 9 -9 28.2 4
-1 -9 -9 55.19 6.6
-1 9 -9 60.79 6.3
-2 -9 -9 162.18 10.1
-2 9 -9 141.79 8.6
-3 -9 -9 4.1 3
-3 -9 -9 0.8 2.6
-3 9 -9 1.9 2.3
-4 -9 -9 3.6 3
-4 -9 -9 -2.1 2.7
-4 9 -9 2.2 2.8
-5 -9 -9 52.09 7
4 -10 -9 202.58 12.2
4 10 -9 205.88 12.8
3 -10 -9 151.08 10.2
3 10 -9 132.99 9.9
2 -10 -9 48.9 6.5
2 10 -9 49.8 6.8
1 -10 -9 20 4.5
1 10 -9 26.4 3.6
1 10 -9 33.8 5.5
0 -10 -9 860.51 23.6
0 10 -9 859.31 19.4
-1 -10 -9 904.51 24.4
-1 10 -9 937.31 22
-2 -10 -9 51.59 7
-2 10 -9 65.69 7.3
-3 -10 -9 23.5 5.4
-3 -10 -9 22.3 4.7
-3 10 -9 17.3 4.4
-4 -10 -9 73.69 8.9
-4 -10 -9 66.09 7.7
-4 10 -9 77.29 8.8
-5 -10 -9 84.79 8.9
4 11 -9 1.2 3.6
3 -11 -9 39.4 6.8
3 11 -9 40.3 7
2 -11 -9 18.9 4.6
2 11 -9 21.2 5.1
1 -11 -9 120.99 9.3
1 11 -9 111.29 8.9
0 -11 -9 2.9 2.9
0 11 -9 8.8 2.9
-1 -11 -9 35.3 5.8
-1 11 -9 29.3 4.7
-2 -11 -9 11.2 4.1
-2 11 -9 11.5 3.8
-3 -11 -9 34.2 6.6
-3 -11 -9 40.3 6.4
-3 11 -9 42.4 6.2
-4 -11 -9 69.49 8.1
3 12 -9 49.1 7.5
2 -12 -9 156.68 10.9
2 12 -9 142.69 10.6
1 -12 -9 46.9 7.1
1 12 -9 53.69 7.5
0 -12 -9 213.08 12.4
0 12 -9 221.88 10.2
-1 -12 -9 832.12 24.8
-1 12 -9 849.02 21.5
-2 -12 -9 55.39 7.8
-2 12 -9 48.8 6.4
-3 -12 -9 71.19 8.4
-3 12 -9 96.89 9.5
2 13 -9 -2.5 2.5
1 13 -9 371.86 16.5
0 -13 -9 1.7 3.2
-1 13 -9 44 6.1
-2 13 -9 2.4 3
-2 14 -9 154.38 10.5
6 0 -10 7.8 4.1
5 0 -10 6.1 3.4
4 0 -10 8.4 3.1
3 0 -10 995 18.8
3 0 -10 961.1 22.6
2 0 -10 6.1 2.4
2 0 -10 5.6 2
1 0 -10 6.5 2.1
1 0 -10 5.1 1.9
1 0 -10 8.3 2.4
0 0 -10 439.46 12.9
0 0 -10 453.45 11.8
-1 0 -10 48.8 4.5
-1 0 -10 43.5 5.1
-2 0 -10 798.82 16.7
-2 0 -10 820.02 19.9
2 0 10 764.12 16.5
-3 0 -10 47.8 5.8
-3 0 -10 56.29 5.4
-4 0 -10 853.21 22.8
-4 0 -10 844.32 19.3
-5 0 -10 936.71 22
-5 0 -10 936.31 25.3
-6 0 -10 234.28 13.2
-6 0 -10 227.48 11.1
6 -1 -10 101.59 11
6 1 -10 88.99 10.4
5 -1 -10 901.51 25.2
5 1 -10 910.51 25.4
4 -1 -10 10.2 3.5
4 1 -10 9 3.2
4 1 -10 9.3 2.3
3 -1 -10 464.15 14.8
3 1 -10 466.15 15.3
3 1 -10 452.05 11.5
2 -1 -10 1416.56 24.9
2 -1 -10 1421.26 26.5
2 1 -10 1380.56 27.4
2 1 -10 1474.85 24.1
1 -1 -10 87.19 5.7
1 -1 -10 86.89 5.6
1 -1 -10 93.19 5.9
1 1 -10 91.89 5.3
1 1 -10 88.39 6.1
1 1 -10 94.89 5.7
0 -1 -10 229.98 8.6
0 -1 -10 225.48 9.3
0 1 -10 228.68 9.2
0 1 -10 236.18 7.9
-1 -1 -10 627.24 16.5
-1 -1 -10 614.84 14.7
-1 1 -10 628.54 13.6
-1 1 -10 642.14 16.5
-2 -1 -10 8.8 2.4
2 -1 10 9.2 2.1
-2 -1 -10 8.8 2.8
-2 1 -10 8.5 3
-2 1 -10 4.3 1.9
-3 -1 -10 21 3.6
-3 -1 -10 23.3 4.6
3 -1 10 23.3 3.4
-3 1 -10 19.4 3.3
-3 1 -10 25.3 4.5
-4 -1 -10 547.25 15.7
-4 -1 -10 564.34 18.2
-4 1 -10 560.74 18.3
-4 1 -10 570.74 14.8
-5 -1 -10 75.99 7.5
-5 -1 -10 66.69 8.3
-5 1 -10 66.79 6.6
-5 1 -10 56.79 7.4
-6 -1 -10 157.28 11.1
-6 -1 -10 176.88 10.3
-6 1 -10 172.18 11.4
-6 1 -10 181.18 9.5
-7 -1 -10 4 3
6 -2 -10 125.59 12
6 2 -10 130.79 13
5 -2 -10 557.54 19.4
5 2 -10 569.54 20.2
4 -2 -10 -0.4 1.9
4 2 -10 -0.8 2.1
4 2 -10 0.9 1.3
3 -2 -10 139.29 7.9
3 2 -10 141.59 6
3 2 -10 153.78 9.1
2 -2 -10 72.19 5.7
2 -2 -10 69.59 5.3
2 2 -10 72.79 6.9
2 2 -10 47.8 4.3
1 -2 -10 112.29 6.6
1 -2 -10 106.79 6
1 -2 -10 115.19 6.6
1 2 -10 116.19 6.2
1 2 -10 116.89 5.6
0 -2 -10 1856.61 31.4
0 -2 -10 1804.52 30
0 2 -10 1850.81 30.5
0 2 -10 1828.82 26.5
-1 -2 -10 484.45 14.6
-1 -2 -10 499.55 13.7
-1 2 -10 488.15 10.9
-1 2 -10 479.45 14.3
-2 -2 -10 657.93 17.8
-2 -2 -10 632.84 16
-2 2 -10 660.23 17.9
-2 2 -10 661.63 13.5
3 -2 10 203.18 7.5
-3 -2 -10 188.98 8.8
-3 -2 -10 209.38 10.4
-3 2 -10 192.68 7.5
-3 2 -10 199.18 10.4
-4 -2 -10 161.88 9.8
-4 -2 -10 167.08 9
-4 2 -10 159.98 7.5
-4 2 -10 163.78 10.1
-5 -2 -10 739.53 22.1
-5 -2 -10 727.63 20.1
-5 2 -10 745.33 17.8
-5 2 -10 757.12 22.8
-6 -2 -10 190.88 11.9
-6 -2 -10 199.28 11.2
-6 2 -10 202.68 12.5
-7 -2 -10 0.3 2.6
7 -3 -10 0.4 3.3
6 -3 -10 56.29 8.2
6 3 -10 57.09 8.5
5 -3 -10 100.89 9.7
5 3 -10 92.89 10
4 -3 -10 64.09 7
4 3 -10 66.49 7.9
3 -3 -10 425.46 13.6
3 3 -10 432.06 15.3
3 3 -10 418.56 10
2 -3 -10 1583.24 27.5
2 -3 -10 1571.94 29.3
2 3 -10 1573.84 30.8
2 3 -10 1580.54 25.1
1 -3 -10 6 2.3
1 -3 -10 6.8 2.1
1 3 -10 9.1 2
1 3 -10 13.4 2.7
0 -3 -10 41.4 4.8
0 -3 -10 42.2 4.9
0 3 -10 41.7 4.9
0 3 -10 43.9 3.2
-1 -3 -10 512.85 15.2
-1 -3 -10 495.15 14.3
-1 3 -10 501.65 10.3
-1 3 -10 527.95 15.1
-2 -3 -10 368.66 12.5
-2 -3 -10 380.66 13
-2 -3 -10 375.56 13.4
-2 3 -10 382.96 9
-2 3 -10 382.56 13.6
-3 -3 -10 355.96 13.5
-3 -3 -10 314.27 11.9
-3 3 -10 330.87 9
-3 3 -10 314.27 13
-4 -3 -10 57.49 7.3
-4 -3 -10 42.8 5.6
-4 3 -10 49.4 6.9
-4 3 -10 43.5 4.2
-5 -3 -10 51.79 6.6
-5 -3 -10 63.49 7.9
-5 3 -10 56.39 7.5
-6 -3 -10 10.6 4.1
-6 -3 -10 12.4 4
-6 3 -10 16.4 4.8
7 -4 -10 47 8.4
6 -4 -10 17.6 5
6 4 -10 18.8 5.4
5 -4 -10 139.59 9.8
5 4 -10 152.68 11
4 -4 -10 14.7 3.8
4 4 -10 14.7 4.3
3 -4 -10 446.46 13.8
3 4 -10 446.86 15.8
3 4 -10 439.36 9.8
2 -4 -10 23.9 3.6
2 -4 -10 17.5 3.7
2 4 -10 15.3 2.7
2 4 -10 24.3 4.5
1 -4 -10 24.8 3.3
1 -4 -10 32.1 4.4
1 4 -10 37.3 4.2
1 4 -10 25.9 2.9
0 -4 -10 864.01 16.3
0 -4 -10 805.92 19.4
0 4 -10 829.02 13.5
0 4 -10 860.81 18.9
-1 -4 -10 488.15 14.7
-1 -4 -10 494.05 15.2
-1 -4 -10 523.25 13.8
-1 4 -10 498.45 14.8
-2 -4 -10 0.7 1.6
-2 -4 -10 1.1 2.1
-2 -4 -10 3.9 2.2
-2 4 -10 3.2 2.6
-3 -4 -10 4.8 2.7
-3 -4 -10 3.8 2.5
-3 4 -10 7.6 1.8
-3 4 -10 5.5 2.9
-4 -4 -10 151.48 9.5
-4 -4 -10 149.29 9.1
-4 4 -10 144.29 9.8
-5 -4 -10 504.35 18.1
-5 -4 -10 499.25 17.4
-5 4 -10 521.15 18.9
-6 -4 -10 16.1 4.6
-6 -4 -10 17.9 5.4
7 -5 -10 15.9 5.4
6 -5 -10 35.3 6.5
5 -5 -10 334.67 14.4
5 5 -10 369.06 16.8
4 -5 -10 282.77 11.9
4 5 -10 265.67 13.4
3 -5 -10 752.12 18.2
3 -5 -10 737.63 20.4
3 5 -10 762.42 21.7
2 -5 -10 1732.43 28.1
2 -5 -10 1750.42 33
2 5 -10 1777.82 26.5
2 5 -10 1762.82 34.2
2 5 -10 1727.83 26.1
1 -5 -10 117.29 5.5
1 -5 -10 119.29 7.7
1 5 -10 112.49 6.1
1 5 -10 117.49 4.7
0 -5 -10 106.29 4.9
0 -5 -10 102.99 7.1
0 5 -10 105.19 6.4
-1 -5 -10 189.28 9.5
-1 -5 -10 195.18 7.8
-1 -5 -10 191.78 9.7
-1 5 -10 192.68 9.3
-2 -5 -10 50.79 5.9
-2 -5 -10 54.59 5.8
-2 -5 -10 52.09 6.2
-2 5 -10 59.09 6.5
-3 -5 -10 382.56 14.4
-3 -5 -10 390.16 14.3
-3 5 -10 414.76 15.2
-4 -5 -10 167.08 10
-4 -5 -10 153.18 9.7
-4 5 -10 150.18 10.1
-5 -5 -10 8.6 3.9
-5 -5 -10 6.7 3.5
-5 5 -10 2 3
-6 -5 -10 159.28 11
-6 -5 -10 160.08 11.1
5 -6 -10 96.19 9.4
5 6 -10 84.99 9.8
4 -6 -10 -0.1 2
4 6 -10 0.8 2.1
3 -6 -10 157.88 9.6
3 -6 -10 153.38 7.7
3 6 -10 170.58 10.5
2 -6 -10 395.56 10.9
2 -6 -10 397.76 14.5
2 6 -10 407.76 15.2
2 6 -10 399.66 10.1
1 -6 -10 -0.5 1.1
1 -6 -10 -1.7 1.6
1 6 -10 1.6 1.6
0 -6 -10 967.8 22.9
0 -6 -10 980.9 15.7
0 6 -10 933.31 20.3
-1 -6 -10 16.5 3.8
-1 -6 -10 15.8 3.8
-1 6 -10 11.4 3
-2 -6 -10 251.77 11.5
-2 -6 -10 221.28 10.8
-2 6 -10 256.07 11.3
-3 -6 -10 7.3 3
-3 -6 -10 3.2 2.6
-3 6 -10 -1.2 1.9
-4 -6 -10 513.75 17.7
-4 -6 -10 522.05 17.8
-4 6 -10 539.95 18.9
-5 -6 -10 563.74 19.4
-5 -6 -10 542.05 18.9
-5 6 -10 573.84 20.4
-6 -6 -10 94.19 9.7
5 7 -10 294.57 15.6
4 -7 -10 87.49 8.8
4 7 -10 106.59 11.2
3 -7 -10 222.08 11.6
3 7 -10 209.48 11.9
2 -7 -10 572.84 18.1
2 7 -10 575.64 12.2
2 7 -10 595.44 19
1 -7 -10 9.5 3.4
-1 -7 10 21.4 3.2
1 7 -10 17.4 2.9
0 -7 -10 89.59 8.2
0 7 -10 84.09 6.1
-1 -7 -10 204.48 10.5
-1 7 -10 188.88 9.4
-2 -7 -10 7 3
-2 -7 -10 1.4 2.5
-2 7 -10 1.8 2.4
-3 -7 -10 224.18 11.4
-3 -7 -10 232.48 11.8
-3 7 -10 251.27 12.1
-4 -7 -10 68.99 7.6
-4 -7 -10 76.79 8.3
-4 7 -10 65.49 7.8
-5 -7 -10 4.9 3
-5 -7 -10 4.8 3.7
-5 7 -10 3.2 3.2
4 -8 -10 24.3 5.3
4 8 -10 26.3 5.4
3 -8 -10 134.69 9.5
3 8 -10 123.19 9.7
2 -8 -10 38.5 6.2
2 8 -10 30.6 5.6
1 -8 -10 191.58 10.6
1 8 -10 172.48 7.4
0 -8 -10 1022.1 25.2
0 8 -10 997 21.4
-1 -8 -10 33 5.2
-1 8 -10 44.1 5.4
-2 -8 -10 85.59 9.1
-2 -8 -10 63.99 7.1
-2 8 -10 86.59 8
-3 -8 -10 22 4.6
-3 -8 -10 22.6 5.3
-3 8 -10 13.5 3.8
-4 -8 -10 505.45 18
-4 -8 -10 514.45 18.8
-4 8 -10 523.55 19
-5 -8 -10 743.13 22.7
4 -9 -10 68.09 8.4
4 9 -10 73.79 9.5
3 -9 -10 53.29 7.2
3 9 -10 50.49 7.5
2 -9 -10 1012.7 26.2
2 9 -10 978.9 26.4
1 -9 -10 185.98 10.9
1 9 -10 187.08 7.8
0 -9 -10 177.68 10.7
0 9 -10 164.08 8.3
-1 -9 -10 16.6 4.1
-1 9 -10 20.8 4.2
-2 -9 -10 85.39 8.3
-2 -9 -10 91.49 9
-2 9 -10 96.69 7.5
-3 -9 -10 38.4 6.7
-3 -9 -10 30.2 5.4
-3 9 -10 35.2 5.7
-4 -9 -10 232.88 13.2
-4 -9 -10 226.78 12.3
-4 9 -10 221.88 12.6
-5 -9 -10 0.9 3.5
3 -10 -10 191.68 11.7
3 10 -10 160.18 11.3
2 -10 -10 139.09 10
2 10 -10 140.79 10.3
1 -10 -10 44.4 6.6
1 10 -10 58.09 7.8
0 -10 -10 287.57 13.8
0 10 -10 291.77 11.1
-1 -10 -10 13.2 4.3
-1 10 -10 12.2 3.7
-2 -10 -10 232.48 12.7
-2 -10 -10 219.68 12
-2 10 -10 223.78 11.4
-3 -10 -10 -2.1 2.5
-3 -10 -10 -0.7 2.9
-3 10 -10 0.2 2.4
-4 -10 -10 0.6 2.8
3 11 -10 99.99 11
2 -11 -10 553.94 20.1
2 11 -10 544.45 20.2
1 -11 -10 43.6 6.8
1 11 -10 33.4 6.1
0 -11 -10 11.2 4.1
0 11 -10 9.3 2.9
-1 -11 -10 5.8 3.5
-1 11 -10 11.9 3.5
-2 -11 -10 15.3 4.2
-2 -11 -10 8.3 4.1
-2 11 -10 12.4 3.9
-3 -11 -10 5.1 3.5
-3 11 -10 7.7 3.6
2 12 -10 77.09 9.3
1 -12 -10 70.79 9.3
1 12 -10 65.29 8.4
0 -12 -10 223.48 13.3
-1 12 -10 47.2 6.2
-2 12 -10 109.29 9.7
-2 13 -10 56.39 7.3
6 0 -11 561.24 21.9
5 0 -11 17.1 4.6
4 0 -11 462.25 12.4
4 0 -11 484.55 17.1
3 0 -11 11.7 3.3
3 0 -11 13.4 2.9
2 0 -11 125.49 6.8
2 0 -11 128.39 7.1
2 0 -11 128.49 7.7
1 0 -11 475.85 14.2
1 0 -11 480.05 13.2
1 0 -11 479.25 13.7
0 0 -11 631.54 16.7
0 0 -11 640.64 15.1
-1 0 -11 325.67 10.4
-1 0 -11 342.77 12.5
-2 0 -11 216.48 10.5
-2 0 -11 209.08 8.4
-3 0 -11 213.98 11.1
-3 0 -11 220.78 9.2
-4 0 -11 1365.16 26.3
-4 0 -11 1359.26 30.9
-5 0 -11 12.4 3.5
-5 0 -11 18.8 4.8
6 -1 -11 243.38 14.4
6 1 -11 243.38 14.7
5 -1 -11 305.37 14.7
5 1 -11 359.46 16
4 -1 -11 57.59 7
4 1 -11 58.29 4.4
4 1 -11 59.79 8
3 -1 -11 87.49 6.9
3 1 -11 73.49 7.5
3 1 -11 85.99 5.3
2 -1 -11 169.08 8
2 -1 -11 175.08 8.7
2 -1 -11 165.28 8.4
2 1 -11 153.78 7.3
2 1 -11 163.38 7.8
2 1 -11 173.98 9.1
1 -1 -11 79.39 5.7
1 -1 -11 100.69 6.5
1 -1 -11 67.79 5.4
1 1 -11 77.29 5.6
1 1 -11 88.29 6.4
1 1 -11 83.19 5.3
0 -1 -11 192.48 9.1
0 -1 -11 193.68 8.4
0 1 -11 212.98 9.3
0 1 -11 205.88 7.9
-1 -1 -11 711.73 18.6
-1 -1 -11 725.43 16.8
-1 1 -11 735.23 15.4
-1 1 -11 718.53 18.6
-2 -1 -11 347.07 13.4
-2 -1 -11 361.16 11.7
-2 1 -11 362.56 13.6
-2 1 -11 368.46 10.7
-3 -1 -11 3.2 2.7
-3 -1 -11 2.3 2.1
-3 1 -11 -1.1 1.6
-3 1 -11 4.4 2.8
-4 -1 -11 206.08 11.6
-4 -1 -11 215.48 10
-4 1 -11 180.18 11.1
-4 1 -11 199.88 8.9
-5 -1 -11 315.87 14.8
-5 -1 -11 295.77 12.6
-5 1 -11 300.87 11.7
-5 1 -11 295.17 14.7
-6 -1 -11 23.2 4.8
6 -2 -11 509.25 20.5
6 2 -11 535.05 21.7
5 -2 -11 268.97 13.7
5 2 -11 265.77 14.2
4 -2 -11 74.29 7.7
4 2 -11 65.19 8.3
3 -2 -11 210.28 10.1
3 2 -11 225.68 8.1
3 2 -11 211.98 11.1
2 -2 -11 346.87 12.1
2 -2 -11 333.87 12.3
2 2 -11 330.07 13
2 2 -11 361.16 10.9
1 -2 -11 551.04 15.3
1 -2 -11 519.85 15
1 -2 -11 545.15 14.5
1 2 -11 551.34 13.2
1 2 -11 543.75 14.3
0 -2 -11 95.99 6.7
0 -2 -11 101.59 6.4
0 2 -11 105.79 5.3
0 2 -11 92.79 6.4
-1 -2 -11 625.44 16.2
-1 -2 -11 646.34 17.7
-1 2 -11 624.44 13.3
-1 2 -11 653.83 17.7
-2 -2 -11 159.08 8.3
-2 -2 -11 183.78 9.8
-2 2 -11 182.38 7
-2 2 -11 209.18 10.5
-3 -2 -11 75.89 7.7
-3 -2 -11 71.99 6.6
-3 2 -11 82.49 8.5
-3 2 -11 86.49 5.3
-4 -2 -11 556.34 18.7
-4 -2 -11 513.95 16.2
-4 2 -11 548.95 18.7
-4 2 -11 545.95 14.2
-5 -2 -11 132.09 9
-5 -2 -11 128.79 10
-5 2 -11 122.89 11.2
-6 -2 -11 10.8 4
6 -3 -11 53.29 8.2
5 -3 -11 23.8 5.3
5 3 -11 29.5 6.3
4 -3 -11 1072.59 25.8
4 3 -11 1103.29 28.3
3 -3 -11 168.08 8.9
3 -3 -11 175.88 9.7
3 3 -11 169.18 6.8
3 3 -11 187.18 10.6
2 -3 -11 96.79 6.3
2 -3 -11 92.99 7
2 3 -11 112.89 8
2 3 -11 99.79 5.8
1 -3 -11 43.9 5.2
1 -3 -11 44.1 5.1
1 -3 -11 47.7 5
1 3 -11 45.6 4.2
1 3 -11 42.4 4.6
0 -3 -11 200.48 9.3
0 -3 -11 198.48 9.5
0 3 -11 203.28 6.8
0 3 -11 192.78 9
-1 -3 -11 434.06 13.8
-1 -3 -11 443.56 14.8
-1 3 -11 453.55 14.6
-1 3 -11 417.26 9.8
-2 -3 -11 1578.54 31.1
-2 -3 -11 1481.85 28.8
-2 3 -11 1563.54 31.2
-2 3 -11 1535.75 22.8
-3 -3 -11 7 2.9
-3 -3 -11 1.3 2.4
-3 3 -11 8.2 3.1
-3 3 -11 5.5 1.9
-4 -3 -11 193.78 10.3
-4 -3 -11 190.28 11.1
-4 3 -11 227.08 12.3
-5 -3 -11 101.59 9.9
-5 -3 -11 123.99 9.2
-5 3 -11 105.79 10.3
-6 -3 -11 4.8 3.4
6 -4 -11 675.03 23.2
5 -4 -11 38.5 6.4
5 4 -11 35.7 6.6
4 -4 -11 23.6 4.8
4 4 -11 13.7 4.2
3 -4 -11 11 3.1
3 -4 -11 11.4 3.4
3 4 -11 9.3 3.3
2 -4 -11 374.36 13.8
2 -4 -11 379.96 11.9
2 4 -11 390.06 14.8
2 4 -11 371.36 10.8
1 -4 -11 805.82 20.3
1 -4 -11 773.22 16.7
1 4 -11 822.22 18.1
1 4 -11 836.62 15.4
0 -4 -11 80.59 5
0 -4 -11 77.79 7.3
0 -4 -11 70.79 6.9
0 4 -11 74.69 6.7
0 4 -11 79.49 4
-1 -4 -11 127.09 7.1
-1 -4 -11 125.89 7.8
-1 -4 -11 129.89 8.4
-1 4 -11 123.59 7.9
-2 -4 -11 16.8 3.8
-2 -4 -11 10.9 3.2
-2 4 -11 15.4 4
-3 -4 -11 0.1 2.2
-3 -4 -11 2.3 2.3
-3 4 -11 7.3 3.2
-4 -4 -11 606.14 18.6
-4 -4 -11 593.24 19.3
-4 4 -11 584.64 19.8
-5 -4 -11 4.7 3.3
-5 -4 -11 3.9 3.2
-5 4 -11 2.8 3.1
-6 -4 -11 263.27 13.8
5 -5 -11 48.2 7
5 5 -11 45.7 7.8
4 -5 -11 88.49 8.4
4 5 -11 86.89 9.4
3 -5 -11 3.2 2.1
3 -5 -11 2.3 2.5
3 5 -11 3.6 2.8
2 -5 -11 43.3 5.7
2 -5 -11 52.39 5.1
2 5 -11 53.99 6.7
2 5 -11 56.19 4.3
1 -5 -11 119.19 8.1
1 -5 -11 131.09 6.1
1 5 -11 128.09 5.1
1 5 -11 117.99 6.7
0 -5 -11 10.7 3.1
0 -5 -11 5.7 1.9
0 -5 -11 9.2 2.9
0 5 -11 9 2.7
-1 -5 -11 535.15 16.8
-1 -5 -11 532.25 16.5
-1 5 -11 500.75 15.7
-2 -5 -11 509.95 16.4
-2 -5 -11 527.65 17.1
-2 5 -11 499.75 16.8
-3 -5 -11 3 2.6
-3 -5 -11 -1.1 2.4
-3 5 -11 1.1 2.3
-4 -5 -11 270.57 13.3
-4 -5 -11 271.47 13
-4 5 -11 292.07 14.1
-5 -5 -11 8.8 4
-5 -5 -11 17.9 5
-5 5 -11 13.5 4.7
5 6 -11 160.78 12.1
4 -6 -11 8.4 3.3
4 6 -11 8.1 3.6
3 -6 -11 36.8 4.8
3 -6 -11 34.4 5.9
3 6 -11 38.9 6.5
2 -6 -11 88.79 8.3
2 -6 -11 101.39 5.8
2 6 -11 104.69 5.5
2 6 -11 113.89 8.7
1 -6 -11 9.6 2.1
1 -6 -11 13.4 3.6
1 6 -11 12.2 2.8
0 -6 -11 85.19 4.5
0 -6 -11 95.39 7.4
0 6 -11 95.69 6.7
-1 -6 -11 237.88 11.4
-1 -6 -11 206.18 10.8
-1 6 -11 230.08 10.6
-2 -6 -11 7 3.1
-2 -6 -11 9.1 3.3
-2 6 -11 5.9 2.8
-3 -6 -11 -0.2 2.3
-3 -6 -11 5.8 3.2
-3 6 -11 2.2 2.4
-4 -6 -11 461.45 17.2
-4 -6 -11 442.66 17.2
-4 6 -11 457.15 18
-5 -6 -11 1.2 3.3
-5 -6 -11 6.8 3.8
4 -7 -11 88.09 9
4 7 -11 81.39 9.5
3 -7 -11 17 4.5
3 7 -11 10.6 4.2
2 -7 -11 90.29 8.9
2 7 -11 85.39 9.1
1 -7 -11 73.29 7.7
1 7 -11 87.69 5.7
0 -7 -11 60.89 7.3
0 7 -11 56.39 5.9
-1 -7 -11 269.27 12.4
-1 -7 -11 249.08 12
-1 7 -11 255.47 11.3
-2 -7 -11 377.96 15.1
-2 -7 -11 347.97 14.5
-2 7 -11 364.66 14.4
-3 -7 -11 48.2 6.6
-3 -7 -11 48.1 6.6
-3 7 -11 58.29 7.6
-4 -7 -11 -1.7 2.6
-4 -7 -11 -0.9 2.7
-4 7 -11 -0.3 2.4
4 -8 -11 -1.1 2.4
4 8 -11 0.3 2.6
3 -8 -11 91.59 9.1
3 8 -11 112.49 10.8
2 -8 -11 166.68 10.4
2 8 -11 144.79 10.2
1 -8 -11 274.77 13.1
1 8 -11 292.07 10.2
0 -8 -11 32 5.6
0 8 -11 35.7 4.9
-1 -8 -11 782.52 22.5
-1 8 -11 813.82 20.9
-2 -8 -11 45.6 6.6
-2 -8 -11 45.4 6.9
-2 8 -11 50.89 6.7
-3 -8 -11 -4.7 2.1
-3 -8 -11 -0.6 2.2
-3 8 -11 -0.5 2
-4 -8 -11 284.97 14.5
-4 -8 -11 286.07 14.3
-4 8 -11 286.07 14.5
3 -9 -11 37.4 6.7
3 9 -11 39.6 7
2 -9 -11 11 3.8
2 9 -11 18.8 4.8
1 -9 -11 47.8 6.6
1 9 -11 49.9 7.4
0 -9 -11 248.18 12.9
0 9 -11 238.28 10.3
-1 -9 -11 716.53 22.1
-1 9 -11 751.82 20.2
-2 -9 -11 189.48 11.6
-2 -9 -11 209.38 11.9
-2 9 -11 178.58 10.5
-3 -9 -11 41.2 6.6
-3 -9 -11 53.79 7.8
-3 9 -11 40.3 6.4
2 -10 -11 144.69 10.6
2 10 -11 155.08 11.2
1 -10 -11 420.06 17.3
1 10 -11 413.46 17.3
0 -10 -11 25.3 5.5
0 10 -11 17.5 3.6
-1 -10 -11 184.78 11.7
-1 10 -11 188.58 10
-2 -10 -11 12.5 4.5
-2 -10 -11 4.6 3.2
-2 10 -11 7.5 3.3
-3 -10 -11 215.08 14.3
-3 10 -11 228.78 12.6
1 -11 -11 80.49 10
1 11 -11 62.59 8.3
0 -11 -11 27.8 5.8
-1 11 -11 8.9 3.3
-2 11 -11 258.07 13
-2 12 -11 -0.9 2.8
6 0 -12 142.99 13.9
5 0 -12 21.5 5.3
4 0 -12 4.8 3.1
4 0 -12 6.9 2.5
3 0 -12 11.5 2.9
3 0 -12 12.2 3.5
2 0 -12 1029.7 21.5
2 0 -12 1033.2 23.9
2 0 -12 1019.6 22.3
1 0 -12 201.88 8.9
1 0 -12 191.08 9.4
1 0 -12 187.08 9
0 0 -12 397.26 13.7
0 0 -12 428.56 12.5
-1 0 -12 2307.67 39.6
-1 0 -12 2330.47 35.5
-2 0 -12 879.61 19
-2 0 -12 867.21 22.7
-3 0 -12 318.07 13.9
-3 0 -12 293.57 11
-4 0 -12 27.4 4.6
-4 0 -12 20.8 5.5
-5 0 -12 288.67 14.8
6 -1 -12 3.5 3.4
5 -1 -12 8.2 3.9
5 1 -12 8.8 4.1
4 -1 -12 125.49 7.1
4 -1 -12 131.89 9.3
4 1 -12 118.19 9
3 -1 -12 38.9 4.7
3 -1 -12 46.6 6.3
3 1 -12 50.49 6.8
3 1 -12 59.89 5.5
2 -1 -12 7.7 2.7
2 -1 -12 8 2.8
2 -1 -12 13 3.5
2 1 -12 10.4 2.9
2 1 -12 12.5 3.2
2 1 -12 5.1 2.7
1 -1 -12 27.7 4.2
1 -1 -12 26.9 4.3
1 -1 -12 23.5 4
1 1 -12 26.6 4.1
1 1 -12 25 3.8
1 1 -12 29.2 4.6
0 -1 -12 555.54 16.3
0 -1 -12 557.64 15.2
0 1 -12 567.64 14.1
0 1 -12 572.74 16.3
-1 -1 -12 3.4 2.2
-1 -1 -12 3.2 2.7
-1 1 -12 4.2 1.9
-1 1 -12 1.2 2.3
-2 -1 -12 3.2 2.6
-2 -1 -12 3.5 2.4
-2 1 -12 1.4 1.9
-2 1 -12 1.1 2.5
-3 -1 -12 -1.6 1.7
-3 -1 -12 1.8 2.3
-3 1 -12 0.7 2.8
-3 1 -12 3.5 2.3
-4 -1 -12 109.99 10.2
-4 -1 -12 114.39 7.9
-4 1 -12 119.39 9.5
-4 1 -12 114.19 7.2
-5 -1 -12 204.98 12.6
-5 -1 -12 238.48 11.5
-5 1 -12 209.48 12.9
6 -2 -12 64.99 9.2
5 -2 -12 107.39 10.6
5 2 -12 129.19 12
4 -2 -12 6.3 3
4 2 -12 4.4 3.2
3 -2 -12 13.8 3.7
3 -2 -12 8 2.9
3 2 -12 10.7 2.6
3 2 -12 6.1 3.4
2 -2 -12 1447.46 28.8
2 -2 -12 1413.76 28
2 -2 -12 1356.56 27
2 2 -12 1427.96 26.1
2 2 -12 1449.46 25.8
2 2 -12 1396.36 30
1 -2 -12 147.69 7.8
1 -2 -12 148.49 8.3
1 -2 -12 138.19 8.2
1 2 -12 149.09 7
1 2 -12 141.99 8.7
1 2 -12 157.28 8
0 -2 -12 240.28 10.8
0 -2 -12 264.97 10.7
0 2 -12 260.27 8.7
0 2 -12 251.47 10.7
-1 -2 -12 164.18 8.4
-1 -2 -12 177.08 9.7
-1 2 -12 173.38 7
-1 2 -12 166.38 9.4
-2 -2 -12 204.18 10.9
-2 -2 -12 222.48 9.9
-2 2 -12 213.18 7.9
-2 2 -12 219.98 11.4
-3 -2 -12 348.67 12.8
-3 -2 -12 354.96 14.6
-3 2 -12 326.37 14.4
-3 2 -12 358.16 10.9
-4 -2 -12 117.59 8.3
-4 -2 -12 125.89 9.7
-4 2 -12 127.99 9.8
-5 -2 -12 117.89 11.4
-5 -2 -12 132.69 9.3
-5 2 -12 122.59 11.2
-6 -2 -12 2.9 3
6 -3 -12 8.4 4.6
5 -3 -12 36.3 6.5
5 3 -12 30.1 6.2
4 -3 -12 2.1 2.5
4 3 -12 2.2 3
3 -3 -12 98.89 7.3
3 -3 -12 87.09 8.2
3 3 -12 83.19 9.1
2 -3 -12 569.04 17.4
2 -3 -12 580.74 16
2 3 -12 574.54 14.7
2 3 -12 571.24 18.3
2 3 -12 542.05 14.4
1 -3 -12 84.09 7.5
1 -3 -12 81.29 5.8
1 -3 -12 77.49 7.5
1 3 -12 74.39 4.9
1 3 -12 78.09 6.1
1 3 -12 90.49 8.3
0 -3 -12 626.24 15.6
0 -3 -12 627.64 17.4
0 -3 -12 611.24 17.8
0 3 -12 626.04 13.4
0 3 -12 618.64 17.1
-1 -3 -12 60.29 6.7
-1 -3 -12 51.39 5.8
-1 3 -12 45.5 5.9
-1 3 -12 55.79 3.9
-2 -3 -12 2.8 2.5
-2 -3 -12 7.7 3.1
-2 3 -12 6.6 3.2
-3 -3 -12 87.09 7.8
-3 -3 -12 99.39 9.3
-3 3 -12 86.39 8.5
-4 -3 -12 419.76 16.9
-4 -3 -12 464.35 16
-4 3 -12 412.26 17.1
-5 -3 -12 103.79 11.1
-5 -3 -12 97.69 9.5
-6 -3 -12 63.59 8
6 -4 -12 495.55 22.7
5 -4 -12 364.16 15.9
5 4 -12 327.47 16.6
4 -4 -12 68.59 7.8
4 -4 -12 49.5 6.7
4 4 -12 44.5 6.7
3 -4 -12 15.1 3.8
3 -4 -12 15.3 3.7
3 4 -12 13.7 3.9
2 -4 -12 617.64 16.2
2 -4 -12 633.64 18.8
2 4 -12 620.54 15.1
2 4 -12 618.94 14.7
2 4 -12 624.74 19.7
1 -4 -12 10.8 3.1
1 -4 -12 7.9 3.1
1 -4 -12 15.4 3.1
1 4 -12 10.5 2.2
1 4 -12 13.1 3.1
0 -4 -12 29.7 4.8
0 -4 -12 13 3.7
0 -4 -12 27.3 3.8
0 4 -12 22.2 4.2
0 4 -12 22.7 2.8
-1 -4 -12 11.7 3.3
-1 -4 -12 21.7 4.3
-1 4 -12 13.2 3.7
-2 -4 -12 29.1 4.9
-2 -4 -12 31 5.4
-2 4 -12 31.4 5.1
-3 -4 -12 248.88 12.6
-3 -4 -12 233.88 11.5
-3 4 -12 241.38 12.5
-4 -4 -12 124.19 9.6
-4 -4 -12 113.59 8.9
-4 4 -12 117.09 10.8
-5 -4 -12 9.2 4.1
4 -5 -12 5.6 3.1
4 5 -12 2.3 2.7
3 -5 -12 88.89 9.1
3 -5 -12 89.79 6.8
3 5 -12 97.19 10.2
2 -5 -12 1.3 1.8
2 -5 -12 6.4 3
2 5 -12 3 2
2 5 -12 -1 2
2 5 -12 2.4 1.6
1 -5 -12 48.6 4.7
1 -5 -12 63.09 6.9
1 5 -12 49.6 5.4
0 -5 -12 1249.97 27.5
0 -5 -12 1221.38 21.6
0 -5 -12 1234.78 27.2
0 5 -12 1182.28 25.2
-1 -5 -12 29.4 5
-1 -5 -12 33.7 5.4
-1 5 -12 40 5.8
-2 -5 -12 122.69 8.9
-2 -5 -12 93.89 9
-2 5 -12 114.39 8.6
-3 -5 -12 4.8 3
-3 -5 -12 -3.1 2.1
-3 5 -12 0.4 2.6
-4 -5 -12 141.09 10.2
-4 -5 -12 125.29 9.5
-4 5 -12 123.49 9.8
-5 -5 -12 110.69 10.6
4 -6 -12 5.2 3.2
4 6 -12 4.1 2.9
3 -6 -12 14.2 4
3 6 -12 21.9 5.2
2 -6 -12 1215.08 28.6
2 6 -12 1235.78 30.1
1 -6 -12 56.19 6.9
1 6 -12 75.39 6.5
0 -6 -12 7.4 3.1
0 -6 -12 10.2 3.3
0 6 -12 8 2.9
-1 -6 -12 71.59 7.6
-1 -6 -12 78.29 8
-1 6 -12 73.99 7.5
-2 -6 -12 90.99 9.1
-2 -6 -12 112.59 8.9
-2 6 -12 92.89 8.8
-3 -6 -12 442.06 16.7
-3 -6 -12 447.46 17.2
-3 6 -12 443.16 17.1
-4 -6 -12 1.1 2.8
-4 -6 -12 2 3.1
-4 6 -12 -0.3 2.4
4 -7 -12 9.5 4.3
3 -7 -12 95.19 9.5
3 7 -12 100.29 10.6
2 -7 -12 24.2 5.2
2 7 -12 14 4.4
1 -7 -12 9.1 3.2
1 7 -12 1.2 2.7
1 7 -12 6.6 2.5
0 -7 -12 532.65 18.2
0 7 -12 551.74 16.2
-1 -7 -12 86.09 8.5
-1 -7 -12 78.09 8.3
-1 7 -12 81.99 8
-2 -7 -12 19.7 4.5
-2 -7 -12 17 4.7
-2 7 -12 29 5.4
-3 -7 -12 28.2 5.7
-3 -7 -12 19.4 4.8
-3 7 -12 27.4 5.5
-4 -7 -12 2 3.5
3 -8 -12 1.4 2.8
3 8 -12 -0.6 2.8
2 -8 -12 715.23 22.3
2 8 -12 714.43 23.2
1 -8 -12 65.69 8.1
1 8 -12 65.79 7.9
0 -8 -12 2.3 2.5
0 8 -12 0.3 1.9
-1 -8 -12 23.6 4.8
-1 -8 -12 21.4 5
-1 8 -12 37.6 5.5
-2 -8 -12 315.07 14.7
-2 -8 -12 331.57 15
-2 8 -12 302.67 13.8
-3 -8 -12 230.68 13
-3 -8 -12 211.88 12.5
-3 8 -12 215.28 12.4
2 -9 -12 47.1 7.4
2 9 -12 49.99 7.6
1 -9 -12 1.1 2.7
1 9 -12 -0.8 2.6
0 -9 -12 138.99 10.3
0 9 -12 123.99 7.7
-1 -9 -12 0.8 3
-1 -9 -12 1.9 2.8
-1 9 -12 3.4 2.6
-2 -9 -12 5.1 3.2
-2 -9 -12 6.1 3.9
-2 9 -12 8.8 3.9
-3 9 -12 6.9 3.7
1 10 -12 60.99 8.6
0 -10 -12 0.5 2.9
-1 10 -12 20.3 4.4
-2 10 -12 204.48 11.6
-2 11 -12 16.1 4.5
5 0 -13 -0.1 2.7
4 0 -13 261.77 13.4
3 0 -13 652.53 16.8
3 0 -13 643.84 20
3 0 -13 656.83 18.6
2 0 -13 529.15 17.3
2 0 -13 571.04 16.5
2 0 -13 567.74 16
1 0 -13 1.4 1.9
1 0 -13 0.6 2.3
1 0 -13 1.5 2.3
0 0 -13 147.59 8.8
0 0 -13 139.19 7.5
-1 0 -13 541.15 14.8
-1 0 -13 539.85 17.3
-2 0 -13 1971.7 32.8
-2 0 -13 2017.6 38.5
-3 0 -13 0.5 2.4
-3 0 -13 0.9 2.6
-4 0 -13 15 4.5
5 -1 -13 10.5 4.4
5 1 -13 7.8 4.1
4 -1 -13 10.2 3.9
4 1 -13 7.2 3.5
3 -1 -13 2.2 2.4
3 -1 -13 -2.5 1.7
3 -1 -13 2.2 2.5
3 1 -13 -2.5 2.1
3 1 -13 -4.5 1.8
3 1 -13 0.8 2.1
2 -1 -13 63.89 7
2 -1 -13 61.19 6.6
2 -1 -13 56.59 6.1
2 1 -13 61.39 6.3
2 1 -13 52.79 6.6
2 1 -13 60.19 6.2
1 -1 -13 198.38 9.8
1 -1 -13 182.18 9.4
1 -1 -13 197.58 9.5
1 1 -13 185.38 9.3
1 1 -13 187.78 8.6
1 1 -13 212.58 10.6
0 -1 -13 52.09 6.3
0 -1 -13 50.59 5.5
0 1 -13 53.99 5.2
0 1 -13 59.89 6.4
-1 -1 -13 53.19 5.7
-1 -1 -13 51.39 6.5
-1 1 -13 57.89 5.4
-1 1 -13 63.09 7.1
-2 -1 -13 9 3.4
-2 -1 -13 8.8 2.9
-2 1 -13 11.2 3
-2 1 -13 9.8 3.8
-3 -1 -13 36.5 6.3
-3 -1 -13 35.8 5.1
-3 1 -13 24.2 5.1
-4 -1 -13 366.16 16.5
-4 -1 -13 392.76 14.1
-4 1 -13 359.86 16.4
5 -2 -13 53.59 7.9
5 2 -13 43.6 7.1
4 -2 -13 150.18 10.2
4 -2 -13 150.98 8.5
4 2 -13 149.39 10.6
3 -2 -13 80.99 7.9
3 -2 -13 70.69 6.7
3 -2 -13 88.39 8.6
3 2 -13 104.69 10.2
2 -2 -13 439.66 14.6
2 -2 -13 422.96 14.8
2 -2 -13 451.55 15
2 2 -13 410.26 13.2
2 2 -13 413.66 15.8
2 2 -13 429.06 13.3
1 -2 -13 209.58 9.7
1 -2 -13 218.78 10.6
1 -2 -13 221.88 10.4
1 2 -13 202.48 10.8
1 2 -13 223.98 8.8
1 2 -13 224.88 10.1
0 -2 -13 5.1 2.5
0 -2 -13 11.3 3.3
0 2 -13 7.3 2.3
0 2 -13 6.4 2.8
-1 -2 -13 7.4 2.8
-1 -2 -13 4.3 2.7
-1 2 -13 5.8 2.9
-1 2 -13 5 2.1
-2 -2 -13 436.06 16.3
-2 -2 -13 408.46 14
-2 2 -13 416.36 16.1
-3 -2 -13 1.6 2.7
-3 -2 -13 0.9 2.7
-3 2 -13 7.2 3.5
-4 -2 -13 6.5 3.2
-4 -2 -13 15.2 4.6
-4 2 -13 5.4 3.9
-5 -2 -13 46.3 6.7
5 -3 -13 68.89 8.8
4 -3 -13 98.09 9.5
4 -3 -13 93.59 9.2
4 3 -13 97.49 10.2
3 -3 -13 18.7 4.4
3 -3 -13 25.8 4.7
3 3 -13 30.1 5.7
2 -3 -13 40.1 5.6
2 -3 -13 40.2 5.7
2 -3 -13 40.8 5.4
2 3 -13 44.6 6.4
2 3 -13 45.1 5.2
2 3 -13 38 4.6
1 -3 -13 108.79 6.9
1 -3 -13 115.29 8
1 -3 -13 94.79 7.5
1 3 -13 91.39 8.8
1 3 -13 104.39 5.9
1 3 -13 113.69 7.4
0 -3 -13 6.5 2.8
0 -3 -13 5.9 2.5
0 -3 -13 6.5 3.2
0 3 -13 0.6 2.2
0 3 -13 5.6 2.2
-1 -3 -13 25.6 4.8
-1 -3 -13 29.1 4.9
-1 3 -13 26.6 4.9
-2 -3 -13 5.8 2.9
-2 -3 -13 3 3
-2 3 -13 6.2 3.3
-3 -3 -13 68.29 7.3
-3 -3 -13 67.39 7.9
-3 3 -13 61.09 8
-4 -3 -13 583.04 20.8
-4 -3 -13 592.04 18.7
-4 3 -13 559.94 20.6
-5 -3 -13 8.5 3.9
4 -4 -13 0.5 2.4
4 -4 -13 3.6 3.1
4 4 -13 -1.3 2.4
3 -4 -13 258.57 12.9
3 -4 -13 272.17 11.8
3 4 -13 270.47 13.8
2 -4 -13 306.27 13.4
2 -4 -13 318.27 13
2 -4 -13 301.37 11.5
2 4 -13 293.97 10.7
2 4 -13 290.77 13.9
1 -4 -13 0.3 1.8
1 -4 -13 3 2.7
1 -4 -13 0.3 2.2
1 4 -13 2 2.1
1 4 -13 -3 1.8
0 -4 -13 169.28 10
0 -4 -13 175.28 9.8
0 -4 -13 158.78 7.6
0 4 -13 149.99 9
-1 -4 -13 0.7 2.4
-1 -4 -13 1 2.3
-1 4 -13 1.9 2.8
-2 -4 -13 708.33 21.6
-2 -4 -13 711.93 20.3
-2 4 -13 699.93 21.3
-3 -4 -13 14.2 4.2
-3 -4 -13 13.4 4.4
-3 4 -13 15.7 4.5
-4 -4 -13 35.8 6.1
-4 4 -13 27.9 5.8
-5 -4 -13 1.9 3.4
4 -5 -13 34.9 6.3
4 5 -13 35.1 6.4
3 -5 -13 12.3 3.9
3 5 -13 14.5 4.5
2 -5 -13 110.69 10.1
2 5 -13 133.99 9.9
1 -5 -13 173.98 10.2
1 -5 -13 200.68 11
1 5 -13 185.48 11.2
1 5 -13 179.48 9.1
0 -5 -13 69.49 7.6
0 -5 -13 56.99 6.9
0 5 -13 65.79 7
-1 -5 -13 270.97 13
-1 -5 -13 269.37 12.6
-1 5 -13 282.77 12.6
-2 -5 -13 61.39 7.7
-2 -5 -13 61.19 7.7
-2 5 -13 61.69 7.5
-3 -5 -13 59.09 7.5
-3 -5 -13 54.69 7.5
-3 5 -13 69.09 8.4
-4 -5 -13 94.39 9.6
3 -6 -13 247.18 13.1
3 6 -13 231.88 13.6
2 -6 -13 157.98 10.3
2 6 -13 150.98 10.8
1 -6 -13 57.99 7.3
1 6 -13 61.39 6
1 6 -13 66.79 8.3
0 -6 -13 98.19 9.2
0 -6 -13 125.09 9.1
0 6 -13 136.99 8.5
-1 -6 -13 9.7 3.5
-1 -6 -13 1.2 2.4
-1 6 -13 0.6 2.5
-2 -6 -13 433.56 16.8
-2 -6 -13 455.75 17.6
-2 6 -13 475.85 17.5
-3 -6 -13 139.49 10.1
-3 -6 -13 139.99 10.7
-3 6 -13 143.39 10.5
-4 -6 -13 57.29 8
3 -7 -13 33.2 6.1
2 -7 -13 252.17 13.3
2 7 -13 252.87 14.1
1 -7 -13 171.58 10.9
1 7 -13 161.68 11.1
0 -7 -13 6.6 3.2
0 -7 -13 6.5 3.5
0 7 -13 12.3 3.6
-1 -7 -13 187.28 11.5
-1 -7 -13 194.28 11.5
-1 7 -13 177.48 10.4
-2 -7 -13 12.3 4.1
-2 -7 -13 22.5 5.3
-2 7 -13 23.4 5.1
-3 -7 -13 39.4 6.7
-3 7 -13 44.8 7.2
2 -8 -13 191.68 12.2
2 8 -13 183.68 13.3
1 -8 -13 49.99 7.2
1 8 -13 74.29 9.1
0 -8 -13 -0.4 2.5
0 -8 -13 -2.3 2.4
0 8 -13 1.4 2.1
-1 -8 -13 82.19 8.9
-1 -8 -13 101.19 9.9
-1 8 -13 88.79 8.7
-2 -8 -13 569.04 20.5
-2 8 -13 560.94 19.4
-1 9 -13 1 2.3
-2 9 -13 0.6 2.9
-2 10 -13 407.96 16.8
4 0 -14 63.69 8.4
3 0 -14 121.59 9.1
3 0 -14 124.19 7.8
3 0 -14 121.09 8.4
2 0 -14 833.42 20.8
2 0 -14 833.12 20.8
2 0 -14 760.22 22
1 0 -14 88.99 8.4
1 0 -14 67.79 6.7
1 0 -14 88.59 8.1
0 0 -14 71.29 7.6
0 0 -14 86.49 7.4
-1 0 -14 98.89 6.8
-1 0 -14 105.99 8.4
-2 0 -14 129.69 7.7
-2 0 -14 133.89 9.8
-3 0 -14 1.4 3
5 -1 -14 3 3.4
4 -1 -14 93.99 9.9
4 -1 -14 77.39 8.4
4 1 -14 80.59 9.5
3 -1 -14 9.4 3.4
3 -1 -14 13 3.7
3 -1 -14 9.6 4.2
3 1 -14 13 3.6
3 1 -14 10 3.8
2 -1 -14 461.45 16.2
2 -1 -14 466.65 15.7
2 -1 -14 470.15 15.5
2 1 -14 486.25 15.1
2 1 -14 474.35 17.1
2 1 -14 459.95 14.7
1 -1 -14 80.79 7.9
1 -1 -14 84.39 8
1 -1 -14 88.89 7.9
1 1 -14 79.19 8.1
1 1 -14 82.89 6.3
1 1 -14 77.79 7.4
0 -1 -14 157.58 9.7
0 -1 -14 156.98 8.7
0 1 -14 154.68 9.4
0 1 -14 161.98 8
-1 -1 -14 0.6 2.5
-1 -1 -14 0.7 2.1
-1 1 -14 -1 1.8
-1 1 -14 -0.9 2.3
-2 -1 -14 158.48 10.6
-2 -1 -14 165.88 9
-2 1 -14 157.08 10.7
-3 -1 -14 87.49 7.8
-3 -1 -14 88.39 9.4
-3 1 -14 80.29 9.6
5 -2 -14 10.1 4.3
4 -2 -14 73.69 8.9
4 -2 -14 64.49 7.9
4 2 -14 76.69 9.7
3 -2 -14 18.8 4.7
3 -2 -14 15.8 4.1
3 -2 -14 14.7 4.1
3 2 -14 22.2 4.3
3 2 -14 16.5 4.9
2 -2 -14 8.5 3.3
2 -2 -14 7.2 3.2
2 -2 -14 3.1 2.9
2 2 -14 2.2 2.8
2 2 -14 -2.1 2
2 2 -14 1.8 2.3
1 -2 -14 26.5 4.9
1 -2 -14 20.9 4.3
1 -2 -14 20.7 4.2
1 2 -14 23 4.3
1 2 -14 19.5 3.6
1 2 -14 37.5 6.2
0 -2 -14 6.5 3
0 -2 -14 -0.3 2
0 -2 -14 1.2 2.2
0 2 -14 6 2.9
-1 -2 -14 431.56 14.8
-1 -2 -14 459.85 16.9
-1 2 -14 439.66 16.4
-2 -2 -14 176.48 9.8
-2 -2 -14 165.68 10.9
-2 2 -14 175.78 11.1
-3 -2 -14 10.1 4.3
-3 -2 -14 12.5 4
-3 2 -14 5.8 3.7
-4 -2 -14 74.09 8.1
4 -3 -14 23.6 5.2
4 -3 -14 17.4 4.9
4 3 -14 16.1 5.3
3 -3 -14 36.6 5.5
3 -3 -14 27.3 4.9
3 -3 -14 29.6 5.8
3 3 -14 35.7 6.8
2 -3 -14 927.51 22.7
2 -3 -14 968.9 23.9
2 -3 -14 943.31 24.4
2 3 -14 984.1 24.3
2 3 -14 937.71 26.1
1 -3 -14 2.2 2.2
1 -3 -14 2.7 2.8
1 -3 -14 -1.3 2.1
1 3 -14 1.6 2.5
1 3 -14 4.2 2.9
0 -3 -14 320.97 11.9
0 -3 -14 301.47 13.5
0 -3 -14 302.57 12.9
0 3 -14 314.97 13.3
-1 -3 -14 629.14 18.7
-1 -3 -14 609.44 19.9
-1 3 -14 650.43 19.9
-2 -3 -14 63.39 7.9
-2 -3 -14 67.29 7.5
-2 3 -14 68.79 8.3
-3 -3 -14 232.78 13.2
-3 -3 -14 234.68 11.8
-3 3 -14 256.47 13.7
-4 -3 -14 12.4 4.2
3 -4 -14 -2.8 2.4
3 -4 -14 1.5 2.9
3 4 -14 2.8 3.2
2 -4 -14 234.58 11.9
2 -4 -14 223.08 12
2 4 -14 238.08 13.2
1 -4 -14 2.5 2.8
1 -4 -14 4.3 2.9
1 4 -14 5.2 3
1 4 -14 5.8 3.4
0 -4 -14 476.85 16.8
0 -4 -14 511.15 17.9
0 4 -14 502.55 16.7
-1 -4 -14 57.79 7.4
-1 -4 -14 53.79 6.8
-1 4 -14 47.1 6.8
-2 -4 -14 40.2 6.6
-2 -4 -14 48.2 6.7
-2 4 -14 36.7 6.2
-3 -4 -14 3.5 3.2
-3 4 -14 5.5 3.6
-4 -4 -14 1.6 3.4
3 -5 -14 74.79 8.8
3 5 -14 55.79 8.4
2 -5 -14 534.75 18.3
2 -5 -14 529.95 18.8
2 5 -14 563.24 20.5
1 -5 -14 8.1 3.7
1 -5 -14 7.7 3.5
1 5 -14 6.4 2.8
1 5 -14 6.8 3.5
0 -5 -14 0.4 2.4
0 -5 -14 3.1 2.9
0 5 -14 4.5 2.8
-1 -5 -14 4.1 3.2
-1 -5 -14 4.5 3.3
-1 5 -14 3.3 2.8
-2 -5 -14 113.19 10.9
-2 -5 -14 120.79 9.3
-2 5 -14 130.89 9.9
-3 -5 -14 219.18 12.4
-3 5 -14 207.28 12.9
2 -6 -14 346.47 15.7
2 6 -14 370.16 17
1 -6 -14 3.1 3.2
1 -6 -14 4.8 3.4
1 6 -14 8.7 3.8
0 -6 -14 32.4 5.7
0 -6 -14 28.4 5.5
0 6 -14 23.8 4.6
-1 -6 -14 200.08 11.7
-1 -6 -14 184.58 11.7
-1 6 -14 176.18 10.8
-2 -6 -14 26.5 5.6
-2 6 -14 31.2 5.9
-3 -6 -14 44.1 7.2
1 -7 -14 -0.1 2.8
1 -7 -14 -1.7 2.4
0 -7 -14 1.8 3
0 -7 -14 -0.7 2.3
0 7 -14 2.9 2.6
-1 -7 -14 21.8 5.3
-1 7 -14 34.5 5.9
-2 -7 -14 78.59 9.9
-2 7 -14 62.99 8.2
-1 8 -14 281.77 13.3
-2 8 -14 127.99 10.1
4 0 -15 17.4 5.3
4 0 -15 21 5.2
3 0 -15 29.9 5.9
3 0 -15 43.7 6.5
2 0 -15 126.89 8.7
2 0 -15 133.99 9.5
2 0 -15 137.19 8.7
1 0 -15 3.6 3
1 0 -15 -1.3 2.2
1 0 -15 5.3 3
0 0 -15 19.1 3.9
0 0 -15 20.8 4.6
-1 0 -15 23.7 5.3
-2 0 -15 23.1 5.5
4 -1 -15 158.08 10.6
4 -1 -15 130.09 10.4
4 1 -15 118.39 9.1
3 -1 -15 298.17 13.6
3 -1 -15 310.27 14.6
3 1 -15 308.97 13.2
3 1 -15 281.67 14.4
2 -1 -15 119.59 9.1
2 -1 -15 146.09 9.3
2 -1 -15 115.69 8.5
2 1 -15 144.09 8.7
2 1 -15 127.29 9.7
2 1 -15 137.69 8.7
1 -1 -15 -2.8 2.1
1 -1 -15 1 2.6
1 -1 -15 2.3 2.8
1 1 -15 1.1 2.6
1 1 -15 0.9 2.7
0 -1 -15 44.8 5.8
0 -1 -15 56.79 7.3
0 -1 -15 60.69 7.1
0 1 -15 50.79 7
-1 -1 -15 4.1 2.7
-1 -1 -15 12.4 4
-1 1 -15 9.5 3.7
-2 -1 -15 574.34 20.5
-2 1 -15 596.94 20.8
3 -2 -15 16.1 4.1
3 -2 -15 19.5 5
3 -2 -15 23 4.9
3 2 -15 17.1 4.8
2 -2 -15 2.6 2.7
2 -2 -15 9.8 3.5
2 -2 -15 4.9 2.8
2 2 -15 2.4 3
1 -2 -15 57.59 7
1 -2 -15 56.69 7.1
1 -2 -15 68.09 7.4
1 2 -15 48.2 6.9
1 2 -15 54.09 6.7
0 -2 -15 126.69 8.3
0 -2 -15 137.99 9.7
0 -2 -15 136.99 8.9
0 2 -15 109.39 8.7
-1 -2 -15 12.5 4.1
-1 -2 -15 17.8 4.1
-1 2 -15 13.1 4
-2 -2 -15 154.78 9.5
-2 -2 -15 148.39 10.7
-2 2 -15 160.18 11.1
3 -3 -15 512.35 17.5
3 -3 -15 543.05 19.1
3 3 -15 468.55 20
2 -3 -15 48.8 6.9
2 -3 -15 43.3 6.2
2 3 -15 53.59 7.8
1 -3 -15 -1.9 2.5
1 -3 -15 4.5 3.1
1 3 -15 4.8 2.9
1 3 -15 1.3 2.9
0 -3 -15 30.4 5.6
0 -3 -15 19.1 4.4
0 3 -15 25.4 5.3
-1 -3 -15 263.87 12.5
-1 -3 -15 261.77 13.6
-1 3 -15 265.77 13.3
-2 -3 -15 698.43 20.5
-2 3 -15 671.33 22.2
-3 -3 -15 174.58 10.7
3 -4 -15 4.3 3.1
2 -4 -15 1.9 2.9
2 -4 -15 0.6 3
2 4 -15 -0.7 3.2
1 -4 -15 1.4 2.6
1 -4 -15 -1.9 2.4
1 4 -15 0.3 2.7
0 -4 -15 67.49 7.8
0 -4 -15 86.59 9.3
0 4 -15 82.49 8.4
-1 -4 -15 130.09 10.2
-1 -4 -15 124.99 9.2
-1 4 -15 132.39 9.9
-2 -4 -15 2 3
-2 4 -15 3 3.3
-3 -4 -15 47.3 7.1
3 -5 -15 280.47 13.7
2 -5 -15 145.59 10.7
2 -5 -15 156.98 10.6
1 -5 -15 163.88 11.1
1 -5 -15 172.38 11.1
1 5 -15 172.88 12.1
0 -5 -15 38.9 6.8
0 -5 -15 26.6 5.5
0 5 -15 31.2 5.4
-1 -5 -15 69.09 8
-1 5 -15 89.29 9.3
-2 -5 -15 663.73 21.5
-2 5 -15 718.43 23.2
1 -6 -15 1.2 3.4
0 -6 -15 99.69 9.9
-1 -6 -15 11 4.5
-1 6 -15 17.5 4.9
-2 6 -15 14.7 5.3
-1 7 -15 66.09 8
3 0 -16 16.6 5
2 0 -16 604.94 20.6
1 0 -16 103.39 10
1 0 -16 92.49 9
0 0 -16 3.2 3.2
0 0 -16 6.2 3.5
-1 0 -16 97.09 9.7
3 -1 -16 2.3 3.1
3 -1 -16 1.2 3.1
2 -1 -16 33.8 5.8
2 -1 -16 39.3 6.1
2 -1 -16 45.7 7
2 1 -16 46.2 7.3
1 -1 -16 2.7 2.9
1 -1 -16 0.8 2.8
1 -1 -16 -2.2 2.4
1 1 -16 1.4 2.9
1 1 -16 5.7 3.3
0 -1 -16 78.09 8.4
0 -1 -16 73.99 8.4
0 1 -16 84.49 9.4
0 1 -16 73.09 8.4
-1 -1 -16 464.35 20.6
-1 1 -16 484.35 18.5
3 -2 -16 22.1 5.5
2 -2 -16 91.49 9.2
2 -2 -16 74.39 8.2
2 2 -16 71.49 9.3
1 -2 -16 186.68 10.9
1 -2 -16 175.68 11.2
1 2 -16 191.58 12
1 2 -16 191.78 11
0 -2 -16 45 6.6
0 -2 -16 57.79 7.7
0 2 -16 39.1 6.4
-1 2 -16 22.2 5.5
2 -3 -16 375.06 16
2 -3 -16 394.36 16
1 -3 -16 14.2 4.4
1 -3 -16 14 4.2
1 3 -16 8.4 3.9
0 -3 -16 45.3 6.6
0 3 -16 32 5.6
-1 -3 -16 492.65 17.5
-1 3 -16 478.35 18.5
1 -4 -16 295.77 14.3
0 -4 -16 127.99 10.1
0 4 -16 125.39 9.6
-1 -4 -16 9.3 3.8
-1 4 -16 6.2 4.1
-2 -4 -16 2.9 3.4
-1 5 -16 1029.2 27.9
-1 6 -16 42.9 7.5
1 0 -17 86.09 9.6
1 0 -17 73.09 8.5
0 0 -17 1.6 3.2
0 1 -17 94.19 11
0 2 -17 24.8 6.1
0 3 -17 288.37 14.9
