#------------------------------------------------------------------------------
#$Date: 2019-11-02 07:11:45 +0200 (Sat, 02 Nov 2019) $
#$Revision: 220905 $
#$URL: file:///home/coder/svn-repositories/cod/cif/4/12/77/4127723.cif $
#------------------------------------------------------------------------------
#
# This file is available in the Crystallography Open Database (COD),
# http://www.crystallography.net/
#
# All data on this site have been placed in the public domain by the
# contributors.
#
data_4127723
loop_
_publ_author_name
'Li, Xiaotong'
'Ke, Weijun'
'Traor\'e, Boubacar'
'Guo, Peijun'
'Hadar, Ido'
'Kepenekian, Mika\"el'
'Even, Jacky'
'Katan, Claudine'
'Stoumpos, Constantinos C.'
'Schaller, Richard D.'
'Kanatzidis, Mercouri G.'
_publ_section_title
;
 Two-Dimensional Dion-Jacobson Hybrid Lead Iodide Perovskites with
 Aromatic Diammonium Cations.
;
_journal_issue                   32
_journal_name_full               'Journal of the American Chemical Society'
_journal_page_first              12880
_journal_page_last               12890
_journal_paper_doi               10.1021/jacs.9b06398
_journal_volume                  141
_journal_year                    2019
_chemical_formula_sum            'C8 H22 I10 N4 Pb3'
_chemical_formula_weight         2064.9
_space_group_IT_number           9
_space_group_name_Hall           'C -2yc'
_space_group_name_H-M_alt        'C 1 c 1'
_symmetry_cell_setting           monoclinic
_symmetry_Int_Tables_number      9
_symmetry_space_group_name_Hall  'C -2yc'
_symmetry_space_group_name_H-M   'C 1 c 1'
_cell_angle_alpha                90
_cell_angle_beta                 95.920(9)
_cell_angle_gamma                90
_cell_formula_units_Z            4
_cell_length_a                   45.091(5)
_cell_length_b                   9.0494(15)
_cell_length_c                   8.8654(10)
_cell_measurement_reflns_used    3598
_cell_measurement_temperature    293
_cell_measurement_theta_max      29.44
_cell_measurement_theta_min      2.22
_cell_volume                     3598.2(8)
_computing_cell_refinement       'STOE X-AREA'
_computing_data_collection       'STOE X-AREA'
_computing_data_reduction        'STOE X-RED'
_computing_structure_refinement  JANA2006
_computing_structure_solution    JANA2006
_diffrn_ambient_temperature      293
_diffrn_detector                 'image plate (34 cm diameter)'
_diffrn_detector_area_resol_mean 6.67
_diffrn_measured_fraction_theta_full 0.99
_diffrn_measured_fraction_theta_max 0.99
_diffrn_measurement_device       'four-circle diffractometer'
_diffrn_measurement_device_type  'IPDS Stoe'
_diffrn_measurement_method       'rotation method'
_diffrn_radiation_monochromator  graphite
_diffrn_radiation_probe          x-ray
_diffrn_radiation_source         'X-ray tube'
_diffrn_radiation_type           'Mo K\a'
_diffrn_radiation_wavelength     0.71073
_diffrn_reflns_av_R_equivalents  0.1593
_diffrn_reflns_av_unetI/netI     0.0457
_diffrn_reflns_limit_h_max       61
_diffrn_reflns_limit_h_min       -61
_diffrn_reflns_limit_k_max       12
_diffrn_reflns_limit_k_min       -12
_diffrn_reflns_limit_l_max       12
_diffrn_reflns_limit_l_min       -10
_diffrn_reflns_number            16755
_diffrn_reflns_theta_full        29.2
_diffrn_reflns_theta_max         29.2
_diffrn_reflns_theta_min         1.82
_diffrn_source
'sealed X-ray tube, 12 x 0.4 mm long-fine focus'
_diffrn_source_current           40
_diffrn_source_power             2.00
_diffrn_source_voltage           50
_exptl_absorpt_coefficient_mu    22.587
_exptl_absorpt_correction_T_max  0.1181
_exptl_absorpt_correction_T_min  0.0190
_exptl_absorpt_correction_type   numerical
_exptl_absorpt_process_details   X-SHAPE
_exptl_crystal_colour            black
_exptl_crystal_density_diffrn    3.8117
_exptl_crystal_description       'square plate'
_exptl_crystal_F_000             3496
_exptl_crystal_size_max          0.1396
_exptl_crystal_size_mid          0.1145
_exptl_crystal_size_min          0.0616
_refine_diff_density_max         8.45
_refine_diff_density_min         -6.03
_refine_ls_abs_structure_details
'  2964 of Friedel pairs used in the refinement'
_refine_ls_extinction_method     none
_refine_ls_goodness_of_fit_gt    7.96
_refine_ls_goodness_of_fit_ref   5.92
_refine_ls_hydrogen_treatment    constr
_refine_ls_number_constraints    99
_refine_ls_number_parameters     157
_refine_ls_number_reflns         6220
_refine_ls_number_restraints     26
_refine_ls_R_factor_all          0.1867
_refine_ls_R_factor_gt           0.1285
_refine_ls_shift/su_max          0.0448
_refine_ls_shift/su_mean         0.0036
_refine_ls_structure_factor_coef F
_refine_ls_weighting_details     w=1/(\s^2^(F)+0.0001F^2^)
_refine_ls_weighting_scheme      sigma
_refine_ls_wR_factor_gt          0.1663
_refine_ls_wR_factor_ref         0.1674
_reflns_number_gt                3470
_reflns_number_total             6220
_reflns_threshold_expression     I>2\s(I)
_cod_data_source_file            ja9b06398_si_002.cif
_cod_data_source_block           3AMPYPb3I10
_cod_depositor_comments
;
The following automatic conversions were performed:

'_diffrn_radiation_probe' value 'X-ray' changed to 'x-ray' according
to
/home/data/users/saulius/crontab/automatic-downloads/current/ACS/lib/dictionaries/cif_core.dic
dictionary named 'cif_core.dic' version 2.4.2 from 2011-04-26.

Automatic conversion script
Id: cif_fix_values 4973 2017-02-22 13:04:09Z antanas 
;
_cod_database_code               4127723
loop_
_space_group_symop_id
_space_group_symop_operation_xyz
1 x,y,z
2 x,-y,z+1/2
3 x+1/2,y+1/2,z
4 x+1/2,-y+1/2,z+1/2
loop_
_atom_site_label
_atom_site_type_symbol
_atom_site_fract_x
_atom_site_fract_y
_atom_site_fract_z
_atom_site_adp_type
_atom_site_U_iso_or_equiv
_atom_site_site_symmetry_multiplicity
_atom_site_occupancy
_atom_site_calc_flag
Pb1 Pb 0.97346(11) 0.2489(6) 0.0763(5) Uani 0.0447(15) 4 1 d
Pb2 Pb 0.61482(15) 0.2492(8) -0.3469(6) Uani 0.0403(7) 4 1 d
Pb3 Pb 0.75675(11) 0.2495(6) -0.2733(4) Uani 0.0424(14) 4 1 d
I1 I 0.7645(3) 0.4979(12) -0.0252(11) Uani 0.095(5) 4 1 d
I2 I 0.1080(3) -0.0044(13) 0.4015(13) Uani 0.089(4) 4 1 d
I3 I 0.9669(2) 0.5030(12) -0.1776(11) Uani 0.076(4) 4 1 d
I4 I 0.6853(3) 0.2916(15) -0.3182(18) Uani 0.114(6) 4 1 d
I5 I 0.9051(3) 0.2181(16) 0.0275(14) Uani 0.098(4) 4 1 d
I6 I 1.04545(20) 0.3003(15) 0.1088(15) Uani 0.102(5) 4 1 d
I7 I 0.9807(5) 0.0072(16) -0.1684(17) Uani 0.155(9) 4 1 d
I8 I 0.7497(3) 0.0043(14) -0.0182(12) Uani 0.109(6) 4 1 d
I9 I 0.6234(4) -0.0050(16) 0.4190(14) Uani 0.140(8) 4 1 d
I10 I 0.8251(3) 0.1873(18) -0.2557(15) Uani 0.116(6) 4 1 d
C1 C 0.708(2) 0.732(17) -0.320(14) Uiso 0.14(4) 4 1 d
N1 N 0.675(2) 0.74(2) -0.357(11) Uiso 0.14(4) 4 1 d
C2 C 1.035(2) 0.72(3) 0.059(18) Uiso 0.16(5) 4 1 d
C4 C 0.8572(13) -0.248(8) -0.154(7) Uiso 0.120(15) 4 1 d
C7 C 0.8962(16) -0.146(9) 0.000(10) Uiso 0.120(15) 4 1 d
C6 C 0.8995(15) -0.272(11) 0.077(8) Uiso 0.120(15) 4 1 d
C5 C 0.8604(17) -0.374(8) -0.077(8) Uiso 0.120(15) 4 1 d
C3 C 0.8333(15) -0.234(12) -0.284(8) Uiso 0.120(15) 4 1 d
N4 N 0.8815(18) -0.386(9) 0.039(8) Uiso 0.120(15) 4 1 d
C8 C 0.8751(16) -0.134(8) -0.116(9) Uiso 0.120(15) 4 1 d
N2 N 1.068(3) 0.72(4) 0.073(17) Uiso 0.16(5) 4 1 d
N3 N 0.8033(13) -0.234(14) -0.226(10) Uiso 0.120(15) 4 1 d
H1n1 H 0.671105 0.772872 -0.449164 Uiso 0.1721 4 1 d
H2n1 H 0.667522 0.653701 -0.348306 Uiso 0.1721 4 1 d
H3n1 H 0.667852 0.801517 -0.294169 Uiso 0.1721 4 1 d
H1n2 H 1.074979 0.657146 0.015273 Uiso 0.1888 4 1 d
H2n2 H 1.073921 0.811029 0.046009 Uiso 0.1888 4 1 d
H3n2 H 1.075195 0.707655 0.167114 Uiso 0.1888 4 1 d
H1n3 H 0.789756 -0.208481 -0.298062 Uiso 0.1442 4 1 d
H2n3 H 0.799408 -0.321637 -0.193223 Uiso 0.1442 4 1 d
H3n3 H 0.803326 -0.170813 -0.151339 Uiso 0.1442 4 1 d
H1c1 H 0.716643 0.667966 -0.391056 Uiso 0.1721 4 1 d
H2c1 H 0.716881 0.829334 -0.326619 Uiso 0.1721 4 1 d
H3c1 H 0.712984 0.694631 -0.219236 Uiso 0.1721 4 1 d
H1c2 H 1.027401 0.789966 0.125264 Uiso 0.1888 4 1 d
H2c2 H 1.027127 0.738217 -0.043631 Uiso 0.1888 4 1 d
H3c2 H 1.028545 0.621029 0.087146 Uiso 0.1888 4 1 d
H1c7 H 0.909171 -0.06438 0.027128 Uiso 0.1442 4 1 d
H1c6 H 0.914749 -0.281253 0.160126 Uiso 0.1442 4 1 d
H1c5 H 0.847471 -0.455769 -0.104494 Uiso 0.1442 4 1 d
H1c3 H 0.835993 -0.143299 -0.337671 Uiso 0.1442 4 1 d
H2c3 H 0.834588 -0.315858 -0.352282 Uiso 0.1442 4 1 d
H1c8 H 0.872772 -0.043276 -0.171838 Uiso 0.1442 4 1 d
H1n4 H 0.883642 -0.468329 0.08928 Uiso 0.1442 4 1 d
loop_
_atom_site_aniso_label
_atom_site_aniso_type_symbol
_atom_site_aniso_U_11
_atom_site_aniso_U_22
_atom_site_aniso_U_33
_atom_site_aniso_U_12
_atom_site_aniso_U_13
_atom_site_aniso_U_23
Pb1 Pb 0.067(3) 0.028(2) 0.044(2) 0.001(3) 0.0317(19) 0.000(3)
Pb2 Pb 0.0582(15) 0.0299(11) 0.0351(12) -0.0017(18) 0.0162(11) -0.0006(19)
Pb3 Pb 0.060(3) 0.033(3) 0.0326(19) 0.008(3) -0.0031(17) 0.000(2)
I1 I 0.173(12) 0.056(6) 0.061(5) -0.028(7) 0.029(6) -0.021(5)
I2 I 0.109(8) 0.077(8) 0.080(6) -0.015(7) 0.004(6) 0.051(6)
I3 I 0.086(6) 0.077(7) 0.067(5) -0.027(5) 0.015(5) 0.052(5)
I4 I 0.092(8) 0.094(10) 0.164(11) -0.005(7) 0.055(8) -0.009(8)
I5 I 0.085(7) 0.090(8) 0.123(8) -0.027(5) 0.034(6) -0.017(6)
I6 I 0.031(4) 0.121(11) 0.148(10) 0.011(5) -0.021(5) -0.006(8)
I7 I 0.28(2) 0.075(9) 0.122(10) -0.006(11) 0.104(12) -0.061(8)
I8 I 0.188(14) 0.069(8) 0.065(6) 0.014(8) -0.003(7) 0.046(6)
I9 I 0.252(19) 0.091(10) 0.090(8) -0.018(11) 0.071(11) -0.067(8)
I10 I 0.080(7) 0.146(12) 0.127(9) 0.045(7) 0.032(6) 0.029(8)
loop_
_atom_type_symbol
_atom_type_scat_dispersion_real
_atom_type_scat_dispersion_imag
_atom_type_scat_source
C 0.0033 0.0016 'International Tables Vol C tables 4.2.6.8 and 6.1.1.1'
H 0.0000 0.0000 'International Tables Vol C tables 4.2.6.8 and 6.1.1.1'
I -0.4742 1.8119 'International Tables Vol C tables 4.2.6.8 and 6.1.1.1'
N 0.0061 0.0033 'International Tables Vol C tables 4.2.6.8 and 6.1.1.1'
Pb -3.3944 10.1111 'International Tables Vol C tables 4.2.6.8 and 6.1.1.1'
loop_
_geom_angle_atom_site_label_1
_geom_angle_atom_site_label_2
_geom_angle_atom_site_label_3
_geom_angle_site_symmetry_1
_geom_angle_site_symmetry_3
_geom_angle
I3 Pb1 I3 . 2_565 88.1(3)
I3 Pb1 I5 . . 87.0(3)
I3 Pb1 I6 . . 88.8(3)
I3 Pb1 I7 . . 91.3(3)
I3 Pb1 I7 . 2_555 179.5(5)
I3 Pb1 I5 2_565 . 89.9(3)
I3 Pb1 I6 2_565 . 90.0(3)
I3 Pb1 I7 2_565 . 179.1(4)
I3 Pb1 I7 2_565 2_555 92.0(3)
I5 Pb1 I6 . . 175.8(4)
I5 Pb1 I7 . . 90.8(5)
I5 Pb1 I7 . 2_555 93.5(5)
I6 Pb1 I7 . . 89.3(5)
I6 Pb1 I7 . 2_555 90.7(5)
I7 Pb1 I7 . 2_555 88.5(4)
I2 Pb2 I2 3_554 4_554 88.1(3)
I2 Pb2 I4 3_554 . 89.7(4)
I2 Pb2 I6 3_554 4_454 89.4(4)
I2 Pb2 I9 3_554 1_554 93.4(4)
I2 Pb2 I9 3_554 2_554 177.8(4)
I2 Pb2 I4 4_554 . 91.3(4)
I2 Pb2 I6 4_554 4_454 91.4(4)
I2 Pb2 I9 4_554 1_554 177.8(4)
I2 Pb2 I9 4_554 2_554 90.2(3)
I4 Pb2 I6 . 4_454 177.1(4)
I4 Pb2 I9 . 1_554 87.2(5)
I4 Pb2 I9 . 2_554 88.9(5)
I6 Pb2 I9 4_454 1_554 90.1(4)
I6 Pb2 I9 4_454 2_554 92.1(4)
I9 Pb2 I9 1_554 2_554 88.1(4)
I1 Pb3 I1 . 2_564 88.0(3)
I1 Pb3 I4 . . 92.3(4)
I1 Pb3 I8 . . 90.8(3)
I1 Pb3 I8 . 2_554 178.8(4)
I1 Pb3 I10 . . 93.2(4)
I1 Pb3 I4 2_564 . 90.5(4)
I1 Pb3 I8 2_564 . 178.7(3)
I1 Pb3 I8 2_564 2_554 92.9(3)
I1 Pb3 I10 2_564 . 89.1(4)
I4 Pb3 I8 . . 89.9(4)
I4 Pb3 I8 . 2_554 88.5(4)
I4 Pb3 I10 . . 174.5(4)
I8 Pb3 I8 . 2_554 88.4(3)
I8 Pb3 I10 . . 90.5(4)
I8 Pb3 I10 2_554 . 86.1(4)
Pb3 I1 Pb3 . 2_565 167.4(5)
Pb3 I1 N3 . 1_565 99.4(17)
Pb3 I1 N3 . 2_555 92.8(17)
Pb3 I1 N3 2_565 1_565 87.5(18)
Pb3 I1 N3 2_565 2_555 92.1(16)
N3 I1 N3 1_565 2_555 123.7(17)
Pb2 I2 Pb2 3_446 4_455 169.0(5)
Pb2 I2 N1 3_446 3_446 90(2)
Pb2 I2 N2 3_446 1_445 95(4)
Pb2 I2 N2 3_446 2_465 103(4)
Pb2 I2 N1 4_455 3_446 82(2)
Pb2 I2 N2 4_455 1_445 91(4)
Pb2 I2 N2 4_455 2_465 82(4)
N1 I2 N2 3_446 1_445 159(2)
N1 I2 N2 3_446 2_465 77(3)
N2 I2 N2 1_445 2_465 122(3)
Pb1 I3 Pb1 . 2_564 169.5(4)
Pb2 I4 Pb3 . . 166.1(5)
Pb2 I4 N1 . . 90.7(14)
Pb2 I4 N1 . 2_565 82.0(14)
Pb3 I4 N1 . . 103.2(14)
Pb3 I4 N1 . 2_565 94.5(14)
N1 I4 N1 . 2_565 97(3)
Pb1 I5 N4 . 1_565 101.1(13)
Pb1 I6 Pb2 . 4_555 163.5(5)
Pb1 I6 N2 . . 113(2)
Pb1 I6 N2 . 2_565 102.9(18)
Pb2 I6 N2 4_555 . 83(2)
Pb2 I6 N2 4_555 2_565 74.2(17)
N2 I6 N2 . 2_565 95(5)
Pb1 I7 Pb1 . 2_554 168.2(8)
Pb3 I8 Pb3 . 2_555 168.3(6)
Pb3 I8 N3 . . 86.4(17)
Pb3 I8 N3 . 2_555 90.1(16)
Pb3 I8 N3 2_555 . 84.1(17)
Pb3 I8 N3 2_555 2_555 85.4(17)
N3 I8 N3 . 2_555 103.7(18)
Pb2 I9 Pb2 1_556 2_555 165.6(7)
Pb2 I9 N1 1_556 1_546 102(2)
Pb2 I9 N2 1_556 4_455 91(4)
Pb2 I9 N1 2_555 1_546 89(2)
Pb2 I9 N2 2_555 4_455 82(4)
N1 I9 N2 1_546 4_455 83(4)
Pb3 I10 N4 . 2_554 127.4(13)
Pb3 I10 N3 . . 85.8(10)
Pb3 I10 N3 . 2_554 78.7(9)
N4 I10 N3 2_554 . 133.1(18)
N4 I10 N3 2_554 2_554 64.5(16)
N3 I10 N3 . 2_554 97(2)
N1 C1 H1c1 . . 109.47
N1 C1 H2c1 . . 109.47
N1 C1 H3c1 . . 109.47
H1c1 C1 H2c1 . . 109.48
H1c1 C1 H3c1 . . 109.47
H2c1 C1 H3c1 . . 109.46
I2 N1 I4 3_554 . 65(3)
I2 N1 I4 3_554 2_564 66.8(17)
I2 N1 I9 3_554 1_564 70.7(16)
I2 N1 C1 3_554 . 138(10)
I2 N1 H1n1 3_554 . 67.58
I2 N1 H2n1 3_554 . 44.28
I2 N1 H3n1 3_554 . 110.94
I4 N1 I4 . 2_564 89(3)
I4 N1 I9 . 1_564 136(4)
I4 N1 C1 . . 80(9)
I4 N1 H1n1 . . 114.7
I4 N1 H2n1 . . 30.03
I4 N1 H3n1 . . 128.08
I4 N1 I9 2_564 1_564 69.2(18)
I4 N1 C1 2_564 . 90(6)
I4 N1 H1n1 2_564 . 30.14
I4 N1 H2n1 2_564 . 96.07
I4 N1 H3n1 2_564 . 139.28
I9 N1 C1 1_564 . 135(10)
I9 N1 H1n1 1_564 . 39.44
I9 N1 H2n1 1_564 . 111.96
I9 N1 H3n1 1_564 . 71.97
C1 N1 H1n1 . . 109.47
C1 N1 H2n1 . . 109.47
C1 N1 H3n1 . . 109.47
H1n1 N1 H2n1 . . 109.48
H1n1 N1 H3n1 . . 109.47
H2n1 N1 H3n1 . . 109.45
N2 C2 H1c2 . . 109.47
N2 C2 H2c2 . . 109.48
N2 C2 H3c2 . . 109.47
H1c2 C2 H2c2 . . 109.47
H1c2 C2 H3c2 . . 109.46
H2c2 C2 H3c2 . . 109.48
C5 C4 C3 . . 120(7)
C5 C4 C8 . . 120(6)
C3 C4 C8 . . 120(7)
C6 C7 C8 . . 120(7)
C6 C7 H1c7 . . 119.99
C8 C7 H1c7 . . 120.01
C7 C6 N4 . . 120(7)
C7 C6 H1c6 . . 120
N4 C6 H1c6 . . 120
C4 C5 N4 . . 120(7)
C4 C5 H1c5 . . 120.01
N4 C5 H1c5 . . 119.99
C4 C3 N3 . . 109(6)
C4 C3 H1c3 . . 109.46
C4 C3 H2c3 . . 109.47
N3 C3 H1c3 . . 109.47
N3 C3 H2c3 . . 109.47
H1c3 C3 H2c3 . . 109.49
I5 N4 I10 1_545 2_555 133(2)
I5 N4 C6 1_545 . 125(6)
I5 N4 C5 1_545 . 104(5)
I5 N4 H1n4 1_545 . 34.65
I10 N4 C6 2_555 . 86(5)
I10 N4 C5 2_555 . 82(5)
I10 N4 H1n4 2_555 . 101.74
C6 N4 C5 . . 120(7)
C6 N4 H1n4 . . 119.99
C5 N4 H1n4 . . 120.01
C4 C8 C7 . . 120(7)
C4 C8 H1c8 . . 120
C7 C8 H1c8 . . 120
I2 N2 I2 1_665 2_664 71(5)
I2 N2 I6 1_665 . 128(5)
I2 N2 I6 1_665 2_564 142(7)
I2 N2 I9 1_665 4_554 110(3)
I2 N2 C2 1_665 . 117(14)
I2 N2 H1n2 1_665 . 133.37
I2 N2 H2n2 1_665 . 62.19
I2 N2 H3n2 1_665 . 48.17
I2 N2 I6 2_664 . 150(6)
I2 N2 I6 2_664 2_564 72(3)
I2 N2 I9 2_664 4_554 80(3)
I2 N2 C2 2_664 . 123(16)
I2 N2 H1n2 2_664 . 91.17
I2 N2 H2n2 2_664 . 19.09
I2 N2 H3n2 2_664 . 112.6
I6 N2 I6 . 2_564 89(5)
I6 N2 I9 . 4_554 72(6)
I6 N2 C2 . . 73(16)
I6 N2 H1n2 . . 59.09
I6 N2 H2n2 . . 167.67
I6 N2 H3n2 . . 80.29
I6 N2 I9 2_564 4_554 73(3)
I6 N2 C2 2_564 . 77(8)
I6 N2 H1n2 2_564 . 56
I6 N2 H2n2 2_564 . 79.69
I6 N2 H3n2 2_564 . 165.34
I9 N2 C2 4_554 . 133(16)
I9 N2 H1n2 4_554 . 23.76
I9 N2 H2n2 4_554 . 99.14
I9 N2 H3n2 4_554 . 94.29
C2 N2 H1n2 . . 109.47
C2 N2 H2n2 . . 109.47
C2 N2 H3n2 . . 109.47
H1n2 N2 H2n2 . . 109.49
H1n2 N2 H3n2 . . 109.47
H2n2 N2 H3n2 . . 109.46
I1 N3 I1 1_545 2_554 73(2)
I1 N3 I8 1_545 . 77.2(15)
I1 N3 I8 1_545 2_554 112.8(16)
I1 N3 I10 1_545 . 146(3)
I1 N3 I10 1_545 2_555 69.6(16)
I1 N3 C3 1_545 . 133(7)
I1 N3 H1n3 1_545 . 101.74
I1 N3 H2n3 1_545 . 24.2
I1 N3 H3n3 1_545 . 91.77
I1 N3 I8 2_554 . 114.5(15)
I1 N3 I8 2_554 2_554 70.8(13)
I1 N3 I10 2_554 . 131(3)
I1 N3 I10 2_554 2_555 142(3)
I1 N3 C3 2_554 . 97(5)
I1 N3 H1n3 2_554 . 54.56
I1 N3 H2n3 2_554 . 64.38
I1 N3 H3n3 2_554 . 153.11
I8 N3 I8 . 2_554 69.4(16)
I8 N3 I10 . . 70(2)
I8 N3 I10 . 2_555 64.1(15)
I8 N3 C3 . . 143(7)
I8 N3 H1n3 . . 77.2
I8 N3 H2n3 . . 101.34
I8 N3 H3n3 . . 39.04
I8 N3 I10 2_554 . 65.7(19)
I8 N3 I10 2_554 2_555 132(3)
I8 N3 C3 2_554 . 107(5)
I8 N3 H1n3 2_554 . 16.55
I8 N3 H2n3 2_554 . 124.57
I8 N3 H3n3 2_554 . 96.1
I10 N3 I10 . 2_555 86(2)
I10 N3 C3 . . 75(6)
I10 N3 H1n3 . . 81.83
I10 N3 H2n3 . . 164.69
I10 N3 H3n3 . . 55.92
I10 N3 C3 2_555 . 103(4)
I10 N3 H1n3 2_555 . 141.32
I10 N3 H2n3 2_555 . 78.39
I10 N3 H3n3 2_555 . 37.1
C3 N3 H1n3 . . 109.48
C3 N3 H2n3 . . 109.48
C3 N3 H3n3 . . 109.47
H1n3 N3 H2n3 . . 109.48
H1n3 N3 H3n3 . . 109.47
H2n3 N3 H3n3 . . 109.45
loop_
_geom_bond_atom_site_label_1
_geom_bond_atom_site_label_2
_geom_bond_site_symmetry_2
_geom_bond_distance
Pb1 I3 . 3.210(11)
Pb1 I3 2_565 3.166(12)
Pb1 I5 . 3.082(13)
Pb1 I6 . 3.263(10)
Pb1 I7 . 3.121(16)
Pb1 I7 2_555 3.232(16)
Pb2 I2 3_554 3.146(13)
Pb2 I2 4_554 3.228(13)
Pb2 I4 . 3.187(15)
Pb2 I6 4_454 3.144(11)
Pb2 I9 1_554 3.149(16)
Pb2 I9 2_554 3.225(15)
Pb3 I1 . 3.139(11)
Pb3 I1 2_564 3.240(12)
Pb3 I4 . 3.226(14)
Pb3 I8 . 3.208(13)
Pb3 I8 2_554 3.153(13)
Pb3 I10 . 3.121(14)
I1 N3 1_565 3.57(11)
I1 N3 2_555 3.86(10)
I2 N1 3_446 4.17(13)
I2 N2 1_445 4.1(2)
I2 N2 2_465 3.5(2)
I4 N1 . 4.1(2)
I4 N1 2_565 4.17(10)
I5 N4 1_565 3.74(8)
I6 N2 . 4.0(3)
I6 N2 2_565 4.15(15)
I8 N3 . 3.84(10)
I8 N3 2_555 3.95(9)
I9 N1 1_546 3.71(14)
I9 N2 4_455 3.6(2)
I10 N4 2_554 3.74(8)
I10 N3 . 3.95(13)
I10 N3 2_554 4.20(9)
C1 N1 . 1.50(14)
C1 H1c1 . 0.9599
C1 H2c1 . 0.96
C1 H3c1 . 0.9602
N1 H1n1 . 0.8698
N1 H2n1 . 0.87
N1 H3n1 . 0.8701
C2 N2 . 1.50(15)
C2 H1c2 . 0.9601
C2 H2c2 . 0.9598
C2 H3c2 . 0.9601
C4 C5 . 1.33(10)
C4 C3 . 1.50(8)
C4 C8 . 1.33(10)
C7 C6 . 1.33(12)
C7 C8 . 1.33(11)
C7 H1c7 . 0.96
C6 N4 . 1.33(12)
C6 H1c6 . 0.9601
C5 N4 . 1.33(10)
C5 H1c5 . 0.96
C3 N3 . 1.50(10)
C3 H1c3 . 0.9599
C3 H2c3 . 0.9599
N4 H1n4 . 0.8701
C8 H1c8 . 0.9599
N2 H1n2 . 0.8699
N2 H2n2 . 0.8699
N2 H3n2 . 0.8702
N3 H1n3 . 0.8699
N3 H2n3 . 0.8701
N3 H3n3 . 0.8701
loop_
_refln_index_h
_refln_index_k
_refln_index_l
_refln_F_squared_calc
_refln_F_squared_meas
_refln_F_squared_sigma
_refln_observed_status
4 0 0 95186. -1793. 3288. <
-4 0 0 92891. 3885. 3288. <
6 0 0 823076. 299. 2690. <
-6 0 0 833899. 461762. 7771. o
8 0 0 819329. 0. 2092. <
-8 0 0 813368. 512272. 8070. o
10 0 0 84814. 3885. 2092. <
-10 0 0 78686. 54694. 4483. o
12 0 0 10340. 4483. 2092. o
-12 0 0 7302. 8070. 2989. o
14 0 0 3795010. 239698. 2989. o
16 0 0 98767. 12852. 1494. o
-16 0 0 101651. 146449. 2989. o
18 0 0 71107. 11656. 1793. o
-18 0 0 71289. 88766. 2690. o
20 0 0 280853. 43337. 1793. o
-20 0 0 288637. 366122. 3288. o
22 0 0 67980. 10162. 1196. o
-22 0 0 77503. 100721. 2690. o
24 0 0 7634. 2690. 1196. o
-24 0 0 8801. 4483. 1793. o
26 0 0 256. -1196. 897. <
-26 0 0 57. 299. 1494. <
28 0 0 639743. 133000. 1793. o
-28 0 0 654926. 1177270. 4184. o
30 0 0 34523. 4782. 897. o
-30 0 0 40398. 44532. 1494. o
32 0 0 15045. -1196. 897. <
-32 0 0 12861. 13748. 1196. o
34 0 0 46023. -1494. 598. <
-34 0 0 52585. 67845. 1196. o
36 0 0 1316. -1793. 598. <
-36 0 0 10298. 4483. 1196. o
38 0 0 2976. -598. 598. <
-38 0 0 3729. 1196. 897. <
40 0 0 876. -1196. 897. <
-40 0 0 767. -299. 897. <
42 0 0 88354. 28393. 1196. o
-42 0 0 89759. 164083. 1793. o
44 0 0 14144. 11357. 897. o
-44 0 0 15430. 22714. 1196. o
46 0 0 3506. 4483. 897. o
-46 0 0 2596. 3586. 897. o
48 0 0 7300. 11656. 897. o
-48 0 0 9717. 10760. 897. o
50 0 0 17. 299. 897. <
-50 0 0 1272. 598. 897. <
52 0 0 1554. 598. 897. <
-52 0 0 1628. -897. 897. <
1 1 0 3101. 1494. 1196. <
-1 1 0 3192. 1793. 1196. <
3 1 0 2453. 2092. 1196. <
-3 1 0 2442. 2391. 1196. <
5 1 0 3176. 2391. 1196. <
-5 1 0 3161. 1793. 1793. <
7 1 0 5806. 3885. 1494. o
-7 1 0 5914. 3586. 1196. o
9 1 0 19997. 17634. 1494. o
-9 1 0 19541. 19726. 1494. o
11 1 0 397149. 395711. 2989. o
-11 1 0 397246. 442933. 2989. o
13 1 0 885. 598. 1494. <
-13 1 0 864. 1793. 1196. <
15 1 0 2902. 598. 1494. <
-15 1 0 2913. 1793. 1494. <
17 1 0 76720. 54395. 1494. o
-17 1 0 76120. 65454. 1494. o
19 1 0 37112. 22117. 1494. o
-19 1 0 37210. 26899. 1494. o
21 1 0 5748. 3885. 1494. o
-21 1 0 5750. 4483. 1196. o
23 1 0 5672. 2989. 1196. o
-23 1 0 5503. 4483. 1494. o
25 1 0 161311. 136287. 1494. o
-25 1 0 161142. 160197. 1793. o
27 1 0 993. 1196. 897. <
-27 1 0 1060. 1196. 1196. <
29 1 0 1981. 1494. 897. <
-29 1 0 2041. 1793. 1196. <
31 1 0 13817. 11656. 897. o
-31 1 0 13620. 15542. 897. o
33 1 0 1544. 1494. 598. o
-33 1 0 1552. 1793. 598. o
35 1 0 626. 598. 598. <
-35 1 0 603. 0. 897. <
37 1 0 1610. 299. 598. <
-37 1 0 1543. 598. 598. <
39 1 0 14974. 17634. 598. o
-39 1 0 15035. 20622. 598. o
41 1 0 605. 0. 598. <
-41 1 0 612. 598. 598. <
43 1 0 345. 598. 598. <
-43 1 0 340. 0. 598. <
45 1 0 904. -299. 598. <
-45 1 0 865. 598. 598. <
47 1 0 640. 598. 598. <
-47 1 0 629. 1196. 598. <
49 1 0 192. 598. 598. <
-49 1 0 193. -598. 598. <
51 1 0 331. 598. 598. <
-51 1 0 321. 598. 598. <
53 1 0 779. 897. 598. <
-53 1 0 778. 299. 598. <
0 2 0 288211. 466246. 2989. o
2 2 0 10931. 15243. 1494. o
-2 2 0 10986. 14944. 1494. o
4 2 0 29888. 30784. 1196. o
-4 2 0 32880. 32876. 1494. o
6 2 0 168115. 229237. 2092. o
-6 2 0 178553. 220869. 1793. o
8 2 0 197014. 305451. 2092. o
-8 2 0 197223. 306646. 2092. o
10 2 0 20364. 22416. 897. o
-10 2 0 17461. 28094. 1793. o
12 2 0 10584. 13449. 897. o
-12 2 0 10952. 15542. 1793. o
14 2 0 352857. 442037. 2092. o
-14 2 0 340636. 522434. 3586. o
16 2 0 12585. 15542. 1196. o
-16 2 0 14280. 18231. 1196. o
18 2 0 1286. 2690. 1196. o
-18 2 0 3836. 2989. 1196. o
20 2 0 3803. 2989. 1196. o
-20 2 0 6607. 2989. 1196. o
22 2 0 25490. 3586. 1196. o
-22 2 0 5112. 4782. 1196. o
24 2 0 1714. 2092. 897. o
-24 2 0 2908. 1793. 897. <
26 2 0 7047. 6874. 1196. o
-26 2 0 7576. 8667. 1196. o
28 2 0 316412. 263010. 1793. o
-28 2 0 298500. 331453. 1793. o
30 2 0 44994. 34371. 1196. o
-30 2 0 44434. 41842. 1196. o
32 2 0 9953. 5978. 897. o
-32 2 0 8164. 7173. 1196. o
34 2 0 11438. 10162. 897. o
-34 2 0 10445. 11357. 897. o
36 2 0 21271. 8667. 897. o
-36 2 0 14213. 11058. 897. o
38 2 0 896. 299. 598. <
-38 2 0 1521. 598. 897. <
40 2 0 1784. 2690. 598. o
-40 2 0 2027. 4483. 598. o
42 2 0 83206. 101916. 1196. o
-42 2 0 76814. 111182. 1196. o
44 2 0 20155. 24209. 897. o
-44 2 0 20381. 27198. 897. o
46 2 0 3982. 1494. 598. o
-46 2 0 3099. 2989. 598. o
48 2 0 2952. 2989. 598. o
-48 2 0 3398. 4483. 598. o
50 2 0 3516. 2092. 598. o
-50 2 0 2997. 2989. 598. o
52 2 0 300. 598. 598. <
-52 2 0 358. 598. 598. <
1 3 0 14896. 25703. 1494. o
-1 3 0 15057. 27198. 1494. o
3 3 0 222647. 323383. 2092. o
-3 3 0 224123. 329361. 2092. o
5 3 0 64280. 60971. 1196. o
-5 3 0 64174. 62764. 1494. o
7 3 0 14428. 26600. 1196. o
-7 3 0 14402. 17036. 897. o
9 3 0 8273. 10760. 1196. o
-9 3 0 8930. 10162. 1196. o
11 3 0 3065. 6575. 897. o
-11 3 0 2995. 8070. 897. o
13 3 0 9682. 11058. 897. o
-13 3 0 9588. 26899. 1793. o
15 3 0 22955. 19726. 897. o
-15 3 0 22624. 46027. 1793. o
17 3 0 213381. 245974. 1494. o
-17 3 0 215984. 286323. 2391. o
19 3 0 142910. 153921. 1196. o
-19 3 0 141978. 180820. 2092. o
21 3 0 18902. 16139. 897. o
-21 3 0 19064. 21818. 1494. o
23 3 0 8304. 10760. 897. o
-23 3 0 8859. 12553. 1494. o
25 3 0 1774. 299. 897. <
-25 3 0 1962. 1196. 1196. <
27 3 0 942. 598. 897. <
-27 3 0 803. 2989. 1494. <
29 3 0 6060. 4483. 897. o
-29 3 0 5759. 6575. 1196. o
31 3 0 31456. 23312. 897. o
-31 3 0 32477. 28692. 1196. o
33 3 0 41032. 32577. 1196. o
-33 3 0 40553. 43038. 897. o
35 3 0 4188. 2391. 897. o
-35 3 0 4366. 2391. 897. o
37 3 0 1449. 1196. 897. <
-37 3 0 1668. 2391. 598. o
39 3 0 1610. 4483. 897. o
-39 3 0 1577. 3885. 598. o
41 3 0 984. -299. 598. <
-41 3 0 1087. 0. 598. <
43 3 0 2241. -299. 598. <
-43 3 0 2162. 897. 598. <
45 3 0 1985. 897. 598. <
-45 3 0 2211. 897. 598. <
47 3 0 5576. 6575. 897. o
-47 3 0 5376. 5380. 598. o
49 3 0 637. 598. 598. <
-49 3 0 685. 598. 598. <
51 3 0 312. 299. 598. <
-51 3 0 343. 1196. 897. <
2 4 0 72626. 93249. 1494. o
-2 4 0 71012. 92352. 1494. o
4 4 0 144782. 188291. 1793. o
-4 4 0 149187. 181417. 1494. o
6 4 0 741102. 1114800. 2989. o
-6 4 0 749915. 1140210. 3288. o
8 4 0 709431. 1032610. 2989. o
-8 4 0 700816. 1065790. 2989. o
10 4 0 74084. 96238. 1196. o
-10 4 0 71009. 93249. 1196. o
12 4 0 13560. 20025. 1196. o
-12 4 0 15220. 20025. 897. o
14 4 0 1249620. 2034440. 5380. o
-14 4 0 1239870. 2098100. 5380. o
16 4 0 36324. 51407. 897. o
-16 4 0 41622. 59775. 1494. o
18 4 0 42710. 52303. 897. o
-18 4 0 49422. 63660. 1494. o
20 4 0 180950. 248365. 1196. o
-20 4 0 192350. 289012. 2391. o
22 4 0 175968. 243583. 1196. o
-22 4 0 177230. 277057. 2391. o
24 4 0 14544. 17634. 897. o
-24 4 0 13895. 20025. 1494. o
26 4 0 3550. 2989. 897. o
-26 4 0 3962. 4184. 1196. o
28 4 0 249420. 331154. 1494. o
-28 4 0 254891. 427093. 2690. o
30 4 0 7539. 5679. 897. o
-30 4 0 12303. 10760. 1494. o
32 4 0 4804. 5380. 897. o
-32 4 0 6226. 6874. 1196. o
34 4 0 26740. 25703. 897. o
-34 4 0 29771. 29888. 1196. o
36 4 0 23279. 20921. 897. o
-36 4 0 28095. 20324. 1196. o
38 4 0 1337. 598. 598. <
-38 4 0 1628. 598. 897. <
40 4 0 728. 299. 598. <
-40 4 0 726. 0. 897. <
42 4 0 41249. 40348. 897. o
-42 4 0 42632. 41544. 1196. o
44 4 0 1555. 1196. 897. <
-44 4 0 2597. 1494. 897. <
46 4 0 855. 897. 598. <
-46 4 0 933. 897. 897. <
48 4 0 3262. 2989. 598. o
-48 4 0 3817. 3885. 897. o
50 4 0 3281. 3586. 598. o
-50 4 0 3968. 2989. 897. o
1 5 0 4188. 5380. 897. o
-1 5 0 4114. 5380. 897. o
3 5 0 34116. 43337. 897. o
-3 5 0 35236. 43337. 897. o
5 5 0 620. 3586. 897. o
-5 5 0 663. 2391. 897. o
7 5 0 2205. 2391. 897. o
-7 5 0 2281. 1793. 897. <
9 5 0 11676. 15243. 897. o
-9 5 0 10976. 14944. 897. o
11 5 0 215773. 258826. 1494. o
-11 5 0 214313. 278851. 1793. o
13 5 0 1125. 1196. 897. <
-13 5 0 1178. 598. 897. <
15 5 0 100. -299. 897. <
-15 5 0 149. 598. 897. <
17 5 0 2713. 2690. 897. o
-17 5 0 2336. 1793. 1196. <
19 5 0 4376. 299. 598. <
-19 5 0 4589. 897. 1196. <
21 5 0 2098. 2391. 598. o
-21 5 0 2108. 2690. 1196. o
23 5 0 1967. 3288. 897. o
-23 5 0 1658. 4184. 1196. o
25 5 0 115258. 133298. 1196. o
-25 5 0 114638. 158703. 1793. o
27 5 0 301. -299. 897. <
-27 5 0 298. -598. 1494. <
29 5 0 478. 0. 897. <
-29 5 0 557. 1196. 1196. <
31 5 0 994. 1494. 598. o
-31 5 0 796. -299. 1196. <
33 5 0 389. 598. 598. <
-33 5 0 297. 0. 1196. <
35 5 0 627. 0. 897. <
-35 5 0 702. 1793. 1196. <
37 5 0 102. 299. 897. <
-37 5 0 40. 299. 1196. <
39 5 0 18955. 13150. 897. o
-39 5 0 18734. 15243. 1196. o
41 5 0 605. 598. 598. <
-41 5 0 623. 299. 897. <
43 5 0 406. 299. 598. <
-43 5 0 393. 897. 897. <
45 5 0 289. -299. 598. <
-45 5 0 319. -598. 897. <
47 5 0 1283. 1793. 598. o
-47 5 0 1194. 2391. 897. o
0 6 0 11171. 32278. 897. o
2 6 0 1041. 299. 897. <
-2 6 0 2737. 299. 897. <
4 6 0 2566. 299. 897. <
-4 6 0 7526. 1196. 897. <
6 6 0 7815. 14346. 897. o
-6 6 0 11632. 14645. 897. o
8 6 0 23540. 34072. 1196. o
-8 6 0 19777. 34371. 897. o
10 6 0 4215. 2092. 897. o
-10 6 0 1465. 1793. 897. <
12 6 0 1343. 1494. 897. <
-12 6 0 1013. 1196. 897. <
14 6 0 42000. 58580. 1196. o
-14 6 0 37623. 59775. 1196. o
16 6 0 4072. 4184. 897. o
-16 6 0 5307. 6575. 897. o
18 6 0 4016. 4483. 897. o
-18 6 0 7781. 4483. 1196. o
20 6 0 17784. 21519. 897. o
-20 6 0 19170. 25106. 1494. o
22 6 0 79250. 91456. 897. o
-22 6 0 69800. 101020. 1793. o
24 6 0 1037. 1494. 897. <
-24 6 0 613. 598. 1494. <
26 6 0 270. 0. 897. <
-26 6 0 528. 299. 1196. <
28 6 0 62697. 73523. 897. o
-28 6 0 55769. 79202. 1793. o
30 6 0 6676. 5679. 897. o
-30 6 0 6614. 3885. 1494. o
32 6 0 2834. 2391. 598. o
-32 6 0 3889. 1196. 1494. <
34 6 0 8321. 6575. 897. o
-34 6 0 7682. 8070. 1494. o
36 6 0 44279. 40647. 897. o
-36 6 0 40170. 53200. 1494. o
38 6 0 20. 299. 897. <
-38 6 0 9. 2092. 1196. <
40 6 0 701. 299. 897. <
-40 6 0 819. 299. 1196. <
42 6 0 21848. 14944. 897. o
-42 6 0 19681. 14047. 1196. o
44 6 0 2127. 1494. 897. <
-44 6 0 2343. 897. 1196. <
1 7 0 1621. -299. 598. <
-1 7 0 1548. 598. 598. <
3 7 0 17881. 11357. 897. o
-3 7 0 18863. 10760. 1196. o
5 7 0 8432. 8966. 897. o
-5 7 0 8425. 10461. 897. o
7 7 0 4305. 598. 897. <
-7 7 0 4130. 598. 897. <
9 7 0 30. 0. 897. <
-9 7 0 41. 598. 897. <
11 7 0 843. 0. 897. <
-11 7 0 967. 1196. 897. <
13 7 0 1531. -299. 897. <
-13 7 0 1310. 1196. 1196. <
15 7 0 4519. -598. 897. <
-15 7 0 4115. 299. 598. <
17 7 0 27876. 26600. 897. o
-17 7 0 29516. 29589. 897. o
19 7 0 16903. 13150. 897. o
-19 7 0 16423. 12254. 1494. o
21 7 0 1964. 598. 598. <
-21 7 0 1916. -1494. 1196. <
23 7 0 536. 897. 598. <
-23 7 0 739. 299. 1196. <
25 7 0 455. 897. 598. <
-25 7 0 552. 3586. 1494. o
27 7 0 930. -299. 897. <
-27 7 0 711. -598. 1494. <
29 7 0 1454. 299. 598. <
-29 7 0 1251. -897. 1494. <
31 7 0 6309. 5679. 897. o
-31 7 0 7217. 5380. 1494. o
33 7 0 4468. 1793. 897. <
-33 7 0 4098. 1793. 1494. <
35 7 0 417. 897. 897. <
-35 7 0 504. 3586. 1494. o
37 7 0 629. 299. 897. <
-37 7 0 763. -598. 1494. <
39 7 0 447. 1494. 897. <
-39 7 0 355. 299. 1494. <
41 7 0 35. 897. 897. <
-41 7 0 14. 1494. 1196. <
0 8 0 318316. 371801. 1494. o
2 8 0 8618. 6575. 897. o
-2 8 0 7841. 5679. 897. o
4 8 0 30640. 26301. 897. o
-4 8 0 30500. 28094. 897. o
6 8 0 178614. 193970. 1196. o
-6 8 0 182822. 207419. 1494. o
8 8 0 210654. 215489. 1196. o
-8 8 0 205979. 232226. 1494. o
10 8 0 22637. 18231. 897. o
-10 8 0 22096. 21519. 1196. o
12 8 0 3709. 2989. 897. o
-12 8 0 3999. 3288. 897. o
14 8 0 171403. 221765. 1494. o
-14 8 0 173387. 241491. 1494. o
16 8 0 6092. 4184. 897. o
-16 8 0 6248. 3586. 897. o
18 8 0 12826. 11357. 897. o
-18 8 0 13045. 13748. 1196. o
20 8 0 60611. 68442. 1196. o
-20 8 0 63044. 81593. 1793. o
22 8 0 80766. 85478. 897. o
-22 8 0 80502. 103112. 1793. o
24 8 0 6258. 4184. 897. o
-24 8 0 5760. 3586. 1793. <
26 8 0 1163. 897. 897. <
-26 8 0 1160. 2690. 1494. <
28 8 0 44828. 54993. 897. o
-28 8 0 47519. 65155. 1793. o
30 8 0 1075. 2391. 897. o
-30 8 0 1927. 1793. 1494. <
32 8 0 2247. 2391. 897. o
-32 8 0 2732. 1793. 1793. <
34 8 0 12045. 11357. 897. o
-34 8 0 12832. 17036. 1793. o
36 8 0 19527. 17932. 897. o
-36 8 0 20078. 23013. 1793. o
1 9 0 525. 598. 598. <
-1 9 0 417. -299. 897. <
3 9 0 491. 1196. 598. <
-3 9 0 620. 1494. 598. o
5 9 0 473. -299. 598. <
-5 9 0 547. -299. 598. <
7 9 0 649. -299. 897. <
-7 9 0 628. -299. 897. <
9 9 0 628. 299. 897. <
-9 9 0 506. 2092. 897. o
11 9 0 8647. 4184. 897. o
-11 9 0 8324. 4184. 897. o
13 9 0 569. -299. 897. <
-13 9 0 645. 897. 897. <
15 9 0 266. 299. 897. <
-15 9 0 334. 598. 1196. <
17 9 0 2344. 2690. 897. o
-17 9 0 2182. 2989. 897. o
19 9 0 2825. 1793. 897. <
-19 9 0 3020. 598. 897. <
21 9 0 1065. 2391. 897. o
-21 9 0 978. 1793. 1196. <
23 9 0 638. 1793. 598. o
-23 9 0 565. 1494. 1494. <
25 9 0 6521. 2092. 897. o
-25 9 0 6333. 1196. 1494. <
27 9 0 105. 598. 897. <
-27 9 0 75. 0. 1494. <
29 9 0 109. 598. 897. <
-29 9 0 184. 1196. 1793. <
0 10 0 17809. 27198. 897. o
2 10 0 1619. 598. 897. <
-2 10 0 2167. 299. 598. <
4 10 0 685. 1196. 897. <
-4 10 0 846. -299. 897. <
6 10 0 17259. 11656. 897. o
-6 10 0 15583. 14346. 897. o
8 10 0 20319. 16737. 897. o
-8 10 0 21641. 15840. 897. o
10 10 0 768. 598. 897. <
-10 10 0 691. 1196. 897. <
12 10 0 1436. 1196. 897. <
-12 10 0 1043. 598. 897. <
14 10 0 20313. 26301. 897. o
-14 10 0 20699. 32278. 897. o
16 10 0 2397. 598. 897. <
-16 10 0 2386. 1196. 897. <
18 10 0 1491. 1494. 897. <
-18 10 0 1581. 1793. 897. <
20 10 0 11238. 9564. 897. o
-20 10 0 10716. 14645. 1793. o
-53 1 1 881. -299. 598. <
53 1 -1 582. 299. 598. <
-51 1 1 745. 299. 598. <
51 1 -1 351. 897. 598. <
-49 1 1 6677. 6575. 598. o
49 1 -1 5597. 5081. 598. o
-47 1 1 1515. 598. 598. <
47 1 -1 2061. 897. 598. <
-45 1 1 4122. 2690. 598. o
45 1 -1 4008. 1196. 598. <
-43 1 1 98975. 138080. 1196. o
43 1 -1 102136. 96537. 1196. o
-41 1 1 1585. 598. 598. <
41 1 -1 2408. 1793. 598. o
-39 1 1 2080. 299. 598. <
39 1 -1 1308. 598. 598. <
-37 1 1 3530. 1196. 598. <
37 1 -1 2590. -598. 598. <
-35 1 1 29773. 27198. 897. o
35 1 -1 26239. 7771. 598. o
-33 1 1 1814. 1196. 897. <
33 1 -1 2720. -598. 598. <
-31 1 1 1815. 2092. 897. o
31 1 -1 1844. -1793. 897. <
-29 1 1 503904. 526618. 2391. o
29 1 -1 517909. 189188. 1793. o
-27 1 1 12343. 12553. 1196. o
27 1 -1 13744. 299. 1196. <
-25 1 1 6541. 5380. 1494. o
25 1 -1 5295. -299. 897. <
-23 1 1 16153. 15840. 1494. o
23 1 -1 10677. 3586. 1196. o
-21 1 1 60032. 59775. 2092. o
21 1 -1 51510. 15243. 1494. o
-19 1 1 265. 2989. 1793. <
19 1 -1 991. 1494. 1494. <
-17 1 1 9410. 10162. 2092. o
17 1 -1 8717. 3885. 1494. o
-15 1 1 1542610. 1368550. 5679. o
15 1 -1 1574280. 806963. 4782. o
-13 1 1 77676. 60074. 2092. o
13 1 -1 69681. 39452. 2391. o
-11 1 1 24603. 26600. 1793. o
11 1 -1 20498. 22714. 2391. o
-9 1 1 48298. 58281. 2092. o
9 1 -1 54212. 42141. 2989. o
-7 1 1 145031. 146449. 2690. o
7 1 -1 138303. 158703. 2989. o
-5 1 1 4223. 3885. 1793. o
5 1 -1 2825. 2690. 2092. <
-3 1 1 19993. 15243. 1793. o
3 1 -1 22133. 11058. 3288. o
-1 1 1 1488190. 1376920. 6874. o
1 1 -1 1481570. 928904. 6276. o
1 1 1 279958. 217880. 3288. o
-1 1 -1 280110. 137184. 3288. o
3 1 1 112917. 75914. 2391. o
-3 1 -1 115374. 60971. 2391. o
5 1 1 143362. 94146. 1793. o
-5 1 -1 145103. 72926. 4184. o
7 1 1 66272. 62166. 2391. o
-7 1 -1 62293. 62764. 2092. o
9 1 1 7361. 4184. 1793. o
-9 1 -1 7500. 8070. 1793. o
11 1 1 48751. 31980. 1494. o
-11 1 -1 48879. 48418. 1793. o
13 1 1 1130300. 1123170. 4483. o
-13 1 -1 1125570. 1190420. 4184. o
15 1 1 306928. 243285. 2391. o
-15 1 -1 310623. 250756. 2092. o
17 1 1 73289. 42141. 1196. o
-17 1 -1 68857. 56487. 1494. o
19 1 1 52918. 42739. 1196. o
-19 1 -1 56767. 58281. 1494. o
21 1 1 16264. 22416. 1196. o
-21 1 -1 20057. 28692. 1196. o
23 1 1 980. 1196. 897. <
-23 1 -1 1028. 0. 897. <
25 1 1 13547. 10162. 897. o
-25 1 -1 16224. 15243. 1196. o
27 1 1 299440. 237307. 2690. o
-27 1 -1 291517. 278253. 2092. o
29 1 1 169824. 98928. 2092. o
-29 1 -1 173175. 193372. 1494. o
31 1 1 23283. 14645. 897. o
-31 1 -1 21508. 28692. 1196. o
33 1 1 19598. 12254. 897. o
-33 1 -1 22965. 26002. 897. o
35 1 1 8689. 5978. 897. o
-35 1 -1 9601. 9564. 897. o
37 1 1 1917. 1494. 598. o
-37 1 -1 1341. 897. 598. <
39 1 1 3183. 2391. 598. o
-39 1 -1 4579. 3288. 598. o
41 1 1 51346. 28991. 897. o
-41 1 -1 48242. 54694. 1196. o
43 1 1 45095. 31083. 598. o
-43 1 -1 46514. 67247. 897. o
45 1 1 3623. 0. 598. <
-45 1 -1 2703. 4782. 598. o
47 1 1 4348. 897. 598. <
-47 1 -1 5279. 5081. 598. o
49 1 1 1402. 598. 598. <
-49 1 -1 2322. 2092. 598. o
51 1 1 1427. 299. 598. <
-51 1 -1 1023. 1196. 598. <
-52 2 1 100. 299. 598. <
52 2 -1 96. 897. 598. <
-50 2 1 302. -299. 598. <
50 2 -1 282. 0. 598. <
-48 2 1 1737. 1196. 598. <
48 2 -1 1808. 1196. 598. <
-46 2 1 993. 1196. 598. <
46 2 -1 935. 1196. 598. <
-44 2 1 1112. -299. 598. <
44 2 -1 1140. 897. 598. <
-42 2 1 6. 1196. 598. <
42 2 -1 1. 598. 897. <
-40 2 1 7202. 9265. 598. o
40 2 -1 7215. 5081. 598. o
-38 2 1 192. -299. 897. <
38 2 -1 139. 1494. 897. <
-36 2 1 1534. -299. 897. <
36 2 -1 1485. 299. 897. <
-34 2 1 5157. 2690. 1196. o
34 2 -1 5402. 2391. 897. o
-32 2 1 9888. 10461. 1196. o
32 2 -1 9633. 8369. 1196. o
-30 2 1 3279. 1793. 1196. <
30 2 -1 3359. 598. 1196. <
-28 2 1 1808. 2690. 1196. o
28 2 -1 1853. 1196. 897. <
-26 2 1 29259. 34072. 1494. o
26 2 -1 29247. 26301. 1196. o
-24 2 1 1902. -299. 1196. <
24 2 -1 1783. -598. 1196. <
-22 2 1 2640. 299. 1196. <
22 2 -1 2513. 598. 1196. <
-20 2 1 5883. 2690. 1196. o
20 2 -1 6073. 2690. 1196. o
-18 2 1 51824. 71431. 1494. o
18 2 -1 51511. 60971. 1494. o
-16 2 1 1691. 2989. 1494. <
16 2 -1 1830. 2092. 1196. <
-14 2 1 7953. 8369. 1494. o
14 2 -1 8437. 7173. 1196. o
-12 2 1 41483. 45130. 1793. o
12 2 -1 42192. 39452. 1196. o
-10 2 1 20689. 18231. 1494. o
10 2 -1 20519. 14645. 1196. o
-8 2 1 15631. 12254. 1196. o
8 2 -1 15452. 13748. 1494. o
-6 2 1 2237. 1494. 1494. <
6 2 -1 2413. 1494. 1494. <
-4 2 1 110477. 160795. 2391. o
4 2 -1 108191. 153024. 2391. o
-2 2 1 1474. 2391. 1494. <
2 2 -1 1484. 1793. 1494. <
0 2 1 13376. 10162. 1196. o
0 2 -1 12872. 9863. 1196. o
2 2 1 24281. 25404. 1196. o
-2 2 -1 24179. 27198. 1494. o
4 2 1 45274. 48119. 1494. o
-4 2 -1 45796. 44831. 1494. o
6 2 1 13967. 14346. 1196. o
-6 2 -1 14156. 13748. 1196. o
8 2 1 2178. 2092. 1196. <
-8 2 -1 2228. 897. 2092. <
10 2 1 67368. 85180. 1196. o
-10 2 -1 66855. 84582. 2391. o
12 2 1 1289. 1196. 897. <
-12 2 -1 1393. 2391. 2391. <
14 2 1 5202. 1494. 1196. <
-14 2 -1 5122. 1196. 1793. <
16 2 1 4571. 2989. 1196. o
-16 2 -1 4725. 5380. 1196. o
18 2 1 49562. 19726. 1196. o
-18 2 -1 49427. 43636. 1196. o
20 2 1 3085. 1196. 897. <
-20 2 -1 3191. 4483. 897. o
22 2 1 3399. -598. 897. <
-22 2 -1 3535. 1793. 897. <
24 2 1 19199. 7771. 897. o
-24 2 -1 19055. 24807. 897. o
26 2 1 5139. 0. 598. <
-26 2 -1 5220. 1494. 598. o
28 2 1 4223. -598. 598. <
-28 2 -1 4172. -299. 897. <
30 2 1 61. 0. 598. <
-30 2 -1 85. 0. 598. <
32 2 1 15030. 10162. 897. o
-32 2 -1 14727. 18231. 897. o
34 2 1 256. 897. 897. <
-34 2 -1 289. 598. 897. <
36 2 1 1458. 1196. 897. <
-36 2 -1 1479. 897. 897. <
38 2 1 3574. 1793. 598. o
-38 2 -1 3401. 3885. 897. o
40 2 1 3437. 1196. 598. <
-40 2 -1 3621. 2989. 598. o
42 2 1 1114. -598. 598. <
-42 2 -1 1100. 1196. 598. <
44 2 1 720. 299. 598. <
-44 2 -1 742. 299. 598. <
46 2 1 2586. 2092. 598. o
-46 2 -1 2562. 3885. 598. o
48 2 1 398. 299. 598. <
-48 2 -1 389. 897. 598. <
50 2 1 704. 598. 598. <
-50 2 -1 708. 299. 598. <
52 2 1 634. 299. 598. <
-52 2 -1 596. 1793. 598. o
-51 3 1 2016. 897. 897. <
51 3 -1 1894. 1196. 598. <
-49 3 1 6161. 3586. 897. o
49 3 -1 5033. 2989. 897. o
-47 3 1 324. 598. 598. <
47 3 -1 340. 598. 897. <
-45 3 1 1073. 299. 598. <
45 3 -1 761. -598. 897. <
-43 3 1 60854. 53499. 1196. o
43 3 -1 61431. 50510. 1196. o
-41 3 1 3358. 2391. 598. o
41 3 -1 3287. 598. 897. <
-39 3 1 3459. 897. 897. <
39 3 -1 2914. 598. 897. <
-37 3 1 11814. 6276. 897. o
37 3 -1 10827. 4782. 897. o
-35 3 1 37813. 22416. 1494. o
35 3 -1 31606. 15542. 1196. o
-33 3 1 2889. 1494. 1494. <
33 3 -1 1986. 1196. 1196. <
-31 3 1 2672. 598. 1494. <
31 3 -1 1983. -897. 1196. <
-29 3 1 287153. 374790. 2690. o
29 3 -1 288772. 259125. 2092. o
-27 3 1 21180. 27198. 1494. o
27 3 -1 21542. 12553. 897. o
-25 3 1 17362. 19427. 1196. o
25 3 -1 18006. 14645. 897. o
-23 3 1 45311. 40647. 1494. o
23 3 -1 38825. 36463. 897. o
-21 3 1 114340. 140770. 1793. o
21 3 -1 103103. 98330. 1196. o
-19 3 1 6589. 4483. 1196. o
19 3 -1 4426. 2092. 897. o
-17 3 1 8399. 11955. 1494. o
17 3 -1 7716. 22117. 897. o
-15 3 1 791868. 1063700. 3885. o
15 3 -1 786295. 844323. 2690. o
-13 3 1 101423. 117458. 1793. o
13 3 -1 106816. 94445. 1196. o
-11 3 1 61051. 55591. 1196. o
11 3 -1 67921. 61269. 1494. o
-9 3 1 105512. 110584. 1494. o
9 3 -1 113070. 124332. 2092. o
-7 3 1 256661. 285725. 2092. o
7 3 -1 243900. 329062. 2690. o
-5 3 1 9299. 2989. 1196. o
5 3 -1 6136. 3288. 1494. o
-3 3 1 26134. 28692. 1196. o
3 3 -1 26155. 28692. 1494. o
-1 3 1 1056950. 1158140. 3587. o
1 3 -1 1034180. 1356600. 4184. o
1 3 1 186498. 194867. 1793. o
-1 3 -1 201185. 212799. 1793. o
3 3 1 58714. 47820. 1196. o
-3 3 -1 73855. 49314. 1196. o
5 3 1 84481. 78305. 1196. o
-5 3 -1 98415. 79202. 1196. o
7 3 1 293812. 300370. 1793. o
-7 3 -1 274373. 303956. 1793. o
9 3 1 2408. 5380. 1196. o
-9 3 -1 2736. 8070. 1196. o
11 3 1 22625. 37060. 1196. o
-11 3 -1 22162. 41544. 1793. o
13 3 1 693220. 484477. 2092. o
-13 3 -1 687392. 786042. 4483. o
15 3 1 181034. 121941. 1196. o
-15 3 -1 179757. 177831. 2391. o
17 3 1 30592. 17634. 897. o
-17 3 -1 32502. 24209. 1793. o
19 3 1 35675. 31980. 897. o
-19 3 -1 38425. 54096. 1793. o
21 3 1 87591. 85180. 1196. o
-21 3 -1 84851. 79800. 1793. o
23 3 1 4637. 4782. 1196. o
-23 3 -1 4745. 3288. 1196. o
25 3 1 9933. 9564. 897. o
-25 3 -1 9814. 7771. 1196. o
27 3 1 205232. 160496. 1494. o
-27 3 -1 197214. 111182. 1793. o
29 3 1 82072. 61568. 1196. o
-29 3 -1 82646. 46326. 1196. o
31 3 1 9857. 5380. 897. o
-31 3 -1 9312. 6276. 897. o
33 3 1 9289. 5978. 897. o
-33 3 -1 10394. 8369. 598. o
35 3 1 23500. 16737. 897. o
-35 3 -1 22963. 21519. 897. o
37 3 1 2181. 1196. 598. <
-37 3 -1 1957. 1196. 897. <
39 3 1 2231. 897. 897. <
-39 3 -1 2492. 2690. 598. o
41 3 1 38050. 21519. 897. o
-41 3 -1 35617. 35267. 897. o
43 3 1 22465. 15243. 897. o
-43 3 -1 23224. 20921. 897. o
45 3 1 2253. 1793. 598. o
-45 3 -1 1682. 1793. 598. o
47 3 1 1483. 1793. 598. o
-47 3 -1 1760. 2391. 598. o
49 3 1 3889. 3586. 598. o
-49 3 -1 4042. 4483. 598. o
-50 4 1 497. 299. 897. <
50 4 -1 453. 897. 598. <
-48 4 1 1577. 1494. 897. <
48 4 -1 1714. 1196. 598. <
-46 4 1 828. 299. 1196. <
46 4 -1 699. 299. 598. <
-44 4 1 382. 1196. 1196. <
44 4 -1 433. 299. 897. <
-42 4 1 571. 2690. 1196. o
42 4 -1 658. 299. 598. <
-40 4 1 13201. 10461. 1196. o
40 4 -1 13071. 7771. 897. o
-38 4 1 207. 299. 1196. <
38 4 -1 340. 299. 897. <
-36 4 1 468. 299. 1494. <
36 4 -1 413. -299. 897. <
-34 4 1 2836. 5380. 1494. o
34 4 -1 3118. 2989. 897. o
-32 4 1 8154. 11357. 1494. o
32 4 -1 7766. 7472. 897. o
-30 4 1 1687. 5679. 1196. o
30 4 -1 1934. 1793. 897. <
-28 4 1 2635. 2690. 1196. o
28 4 -1 2874. 2092. 897. o
-26 4 1 46165. 54096. 1494. o
26 4 -1 45978. 42440. 897. o
-24 4 1 3809. 8667. 1196. o
24 4 -1 4453. 4782. 897. o
-22 4 1 69. -598. 1196. <
22 4 -1 82. 598. 897. <
-20 4 1 1092. 2690. 1196. o
20 4 -1 1255. 2092. 897. o
-18 4 1 49704. 68144. 1494. o
18 4 -1 48872. 54395. 897. o
-16 4 1 9920. 12254. 1196. o
16 4 -1 10608. 11357. 897. o
-14 4 1 3428. 2690. 897. o
14 4 -1 3660. 2690. 897. o
-12 4 1 66139. 65753. 1196. o
12 4 -1 66021. 66948. 1196. o
-10 4 1 27882. 29888. 1196. o
10 4 -1 28747. 35267. 1196. o
-8 4 1 1086. 1494. 1196. <
8 4 -1 1100. 1196. 1196. <
-6 4 1 1758. 2690. 1196. o
6 4 -1 1665. 3586. 1196. o
-4 4 1 105283. 129114. 1494. o
4 4 -1 103813. 133896. 1494. o
-2 4 1 8492. 8667. 1196. o
2 4 -1 8728. 7173. 1196. o
0 4 1 81. 1793. 897. <
0 4 -1 70. 1793. 1196. <
2 4 1 23865. 27795. 1196. o
-2 4 -1 24269. 29589. 1196. o
4 4 1 46890. 47222. 1196. o
-4 4 -1 47322. 49314. 1196. o
6 4 1 228. 299. 1196. <
-6 4 -1 224. 299. 897. <
8 4 1 5002. 7472. 897. o
-8 4 -1 5189. 8070. 897. o
10 4 1 117646. 132103. 1494. o
-10 4 -1 116253. 133597. 1494. o
12 4 1 237. 1196. 897. <
-12 4 -1 205. 299. 897. <
14 4 1 815. 2690. 897. o
-14 4 -1 879. 1196. 1494. <
16 4 1 3817. 4782. 598. o
-16 4 -1 4339. 12852. 1494. o
18 4 1 37566. 36463. 897. o
-18 4 -1 37365. 34371. 1793. o
20 4 1 3017. 1494. 598. o
-20 4 -1 3294. -299. 1494. <
22 4 1 2180. 4782. 598. o
-22 4 -1 2511. 4184. 1494. o
24 4 1 41982. 44234. 897. o
-24 4 -1 41250. 43038. 1793. o
26 4 1 3261. 3885. 598. o
-26 4 -1 3548. 3885. 1196. o
28 4 1 1821. 1793. 598. o
-28 4 -1 1779. 598. 1196. <
30 4 1 2125. 0. 598. <
-30 4 -1 2390. 0. 1196. <
32 4 1 16672. 13150. 897. o
-32 4 -1 16357. 9564. 1196. o
34 4 1 2207. 897. 598. <
-34 4 -1 2379. 1196. 897. <
36 4 1 416. 598. 598. <
-36 4 -1 501. 0. 897. <
38 4 1 5983. 3885. 598. o
-38 4 -1 5740. 4483. 897. o
40 4 1 2682. 2690. 598. o
-40 4 -1 2920. 2391. 897. o
42 4 1 1327. 299. 897. <
-42 4 -1 1247. 299. 897. <
44 4 1 1048. -897. 598. <
-44 4 -1 1155. -598. 897. <
46 4 1 3801. 2092. 598. o
-46 4 -1 3697. 4782. 897. o
48 4 1 789. 598. 598. <
-48 4 -1 815. 1494. 897. <
-47 5 1 499. -299. 1196. <
47 5 -1 352. 299. 897. <
-45 5 1 992. 897. 1196. <
45 5 -1 719. 598. 598. <
-43 5 1 27725. 22117. 1196. o
43 5 -1 29869. 16438. 897. o
-41 5 1 2468. 1196. 1494. <
41 5 -1 2320. 897. 897. <
-39 5 1 1946. 1793. 1494. <
39 5 -1 2628. 2092. 897. o
-37 5 1 26759. 25404. 1494. o
37 5 -1 30330. 14944. 897. o
-35 5 1 25883. 23611. 1196. o
35 5 -1 25458. 17634. 897. o
-33 5 1 1979. 2391. 1196. <
33 5 -1 1345. 299. 897. <
-31 5 1 878. 0. 1196. <
31 5 -1 814. 598. 598. <
-29 5 1 103971. 129413. 1793. o
29 5 -1 111938. 105802. 1196. o
-27 5 1 15305. 15840. 1494. o
27 5 -1 15001. 12553. 897. o
-25 5 1 9817. 9265. 1196. o
25 5 -1 12474. 9863. 897. o
-23 5 1 66942. 75018. 1494. o
23 5 -1 77680. 63959. 897. o
-21 5 1 99077. 102813. 1793. o
21 5 -1 94191. 86375. 897. o
-19 5 1 3336. 3885. 1196. o
19 5 -1 2520. 2690. 897. o
-17 5 1 435. 897. 1196. <
17 5 -1 573. 1494. 1196. <
-15 5 1 239307. 275862. 1793. o
15 5 -1 243194. 273770. 1793. o
-13 5 1 41198. 41842. 1196. o
13 5 -1 40845. 49314. 1196. o
-11 5 1 26314. 24209. 1196. o
11 5 -1 32926. 23611. 1196. o
-9 5 1 98276. 101020. 1196. o
9 5 -1 115008. 108791. 1494. o
-7 5 1 205639. 207419. 1494. o
7 5 -1 189097. 231927. 1793. o
-5 5 1 6616. 8966. 897. o
5 5 -1 5461. 11357. 1196. o
-3 5 1 1942. 2989. 897. o
3 5 -1 1360. 2391. 1196. <
-1 5 1 307211. 332947. 1793. o
1 5 -1 293041. 422909. 2092. o
1 5 1 37159. 43038. 897. o
-1 5 -1 44898. 36762. 1196. o
3 5 1 29696. 26301. 1196. o
-3 5 -1 38318. 25106. 1196. o
5 5 1 55292. 70236. 1196. o
-5 5 -1 62068. 65155. 1196. o
7 5 1 216828. 240894. 1494. o
-7 5 -1 210129. 253745. 1793. o
9 5 1 5358. 8369. 897. o
-9 5 -1 4602. 8369. 897. o
11 5 1 6380. 7472. 1196. o
-11 5 -1 5598. 5679. 897. o
13 5 1 241600. 262711. 1494. o
-13 5 -1 233348. 311727. 1793. o
15 5 1 37691. 26600. 1196. o
-15 5 -1 47309. 30485. 1196. o
17 5 1 18301. 16737. 598. o
-17 5 -1 20983. 17335. 1494. o
19 5 1 20842. 19128. 897. o
-19 5 -1 20569. 24209. 1494. o
21 5 1 120855. 125827. 897. o
-21 5 -1 126596. 123137. 2092. o
23 5 1 135. 897. 897. <
-23 5 -1 186. -598. 1494. <
25 5 1 7659. 8070. 598. o
-25 5 -1 7050. 6575. 1494. o
27 5 1 104623. 97134. 897. o
-27 5 -1 101948. 118355. 2092. o
29 5 1 20601. 14944. 897. o
-29 5 -1 24609. 13150. 1494. o
31 5 1 6496. 3885. 598. o
-31 5 -1 7613. 2690. 1196. o
33 5 1 5302. 3586. 598. o
-33 5 -1 5289. 1494. 1196. <
35 5 1 38019. 28094. 897. o
-35 5 -1 40073. 23013. 1196. o
37 5 1 1146. 1494. 598. o
-37 5 -1 1087. 1196. 897. <
39 5 1 2468. 2092. 897. o
-39 5 -1 2303. 3288. 897. o
41 5 1 23274. 15840. 897. o
-41 5 -1 23280. 16139. 1196. o
43 5 1 5329. 3586. 897. o
-43 5 -1 6062. 3586. 897. o
45 5 1 1316. 598. 598. <
-45 5 -1 1418. 299. 897. <
-44 6 1 304. -1793. 1196. <
44 6 -1 363. 299. 897. <
-42 6 1 57. 598. 1196. <
42 6 -1 78. 0. 897. <
-40 6 1 2824. 4782. 1494. o
40 6 -1 2825. 2092. 897. o
-38 6 1 846. 598. 1494. <
38 6 -1 811. 598. 897. <
-36 6 1 6. 1793. 1196. <
36 6 -1 1. 598. 897. <
-34 6 1 3388. 2391. 1196. <
34 6 -1 3578. 598. 897. <
-32 6 1 8212. 2690. 1196. o
32 6 -1 7506. 3586. 897. o
-30 6 1 524. 1793. 1196. <
30 6 -1 661. -299. 897. <
-28 6 1 1813. 598. 1196. <
28 6 -1 1837. 0. 897. <
-26 6 1 7418. 8667. 1196. o
26 6 -1 7314. 8070. 897. o
-24 6 1 3078. 1793. 1196. <
24 6 -1 3162. 598. 897. <
-22 6 1 1045. 2690. 1494. <
22 6 -1 1014. 1494. 897. <
-20 6 1 3544. 0. 1494. <
20 6 -1 3607. 897. 897. <
-18 6 1 28306. 19427. 897. o
18 6 -1 26854. 19726. 1196. o
-16 6 1 75. 1494. 897. <
16 6 -1 137. 598. 897. <
-14 6 1 6915. 4184. 897. o
14 6 -1 6893. 5380. 897. o
-12 6 1 15268. 11656. 1196. o
12 6 -1 15170. 8966. 897. o
-10 6 1 3873. 7472. 897. o
10 6 -1 4376. 5380. 897. o
-8 6 1 6013. 6575. 897. o
8 6 -1 6015. 5978. 897. o
-6 6 1 894. 2092. 897. o
6 6 -1 837. 1494. 897. <
-4 6 1 32243. 33175. 897. o
4 6 -1 31378. 34670. 1196. o
-2 6 1 764. 1196. 897. <
2 6 -1 835. 1196. 897. <
0 6 1 8932. 8667. 897. o
0 6 -1 8697. 9265. 1196. o
2 6 1 11897. 12553. 897. o
-2 6 -1 12430. 12553. 1196. o
4 6 1 16297. 11656. 897. o
-4 6 -1 16903. 10162. 897. o
6 6 1 5322. 5081. 897. o
-6 6 -1 5319. 4483. 897. o
8 6 1 545. 2092. 897. o
-8 6 -1 649. 2391. 897. o
10 6 1 21218. 20324. 897. o
-10 6 -1 20437. 23013. 897. o
12 6 1 179. 598. 897. <
-12 6 -1 134. 598. 897. <
14 6 1 3466. 2989. 897. o
-14 6 -1 3311. 3586. 897. o
16 6 1 3945. 3885. 897. o
-16 6 -1 4557. 5380. 897. o
18 6 1 16486. 13748. 897. o
-18 6 -1 16291. 12553. 1494. o
20 6 1 1374. 598. 598. <
-20 6 -1 1446. 0. 1494. <
22 6 1 164. 598. 598. <
-22 6 -1 295. 897. 1494. <
24 6 1 11522. 9863. 598. o
-24 6 -1 10854. 9265. 1494. o
26 6 1 1353. 598. 897. <
-26 6 -1 1384. -1196. 1494. <
28 6 1 206. 897. 598. <
-28 6 -1 146. 598. 1494. <
30 6 1 256. 897. 598. <
-30 6 -1 449. 299. 1494. <
32 6 1 4424. 4483. 897. o
-32 6 -1 4301. 2690. 1494. <
34 6 1 112. -299. 598. <
-34 6 -1 193. -897. 1196. <
36 6 1 104. 598. 897. <
-36 6 -1 203. 0. 1196. <
38 6 1 4041. 2092. 897. o
-38 6 -1 3781. 299. 1196. <
40 6 1 572. 0. 897. <
-40 6 -1 687. 598. 1196. <
42 6 1 408. -299. 598. <
-42 6 -1 353. -897. 1196. <
44 6 1 103. 299. 897. <
-44 6 -1 144. -897. 897. <
-41 7 1 2534. -897. 1196. <
41 7 -1 2471. 1196. 897. <
-39 7 1 2632. 2391. 1494. <
39 7 -1 2766. 1494. 897. <
-37 7 1 16877. 16737. 1494. o
37 7 -1 16985. 12852. 897. o
-35 7 1 27537. 21519. 1494. o
35 7 -1 24999. 16139. 897. o
-33 7 1 2573. -598. 1494. <
33 7 -1 1898. 897. 897. <
-31 7 1 779. 897. 1494. <
31 7 -1 455. 299. 897. <
-29 7 1 54989. 53200. 1793. o
29 7 -1 49050. 46625. 897. o
-27 7 1 10494. 10760. 1494. o
27 7 -1 11231. 7771. 897. o
-25 7 1 12054. 12852. 1494. o
25 7 -1 13090. 10461. 897. o
-23 7 1 48163. 49314. 1494. o
23 7 -1 46342. 42739. 897. o
-21 7 1 98070. 134793. 1793. o
21 7 -1 94381. 82191. 897. o
-19 7 1 5591. 3885. 897. o
19 7 -1 4467. 1793. 897. <
-17 7 1 2726. 2690. 897. o
17 7 -1 2402. 4782. 897. o
-15 7 1 130686. 142564. 1494. o
15 7 -1 121962. 121044. 2092. o
-13 7 1 30835. 44234. 1196. o
13 7 -1 34372. 26002. 1793. o
-11 7 1 23587. 25106. 897. o
11 7 -1 26240. 23910. 897. o
-9 7 1 61819. 62166. 1196. o
9 7 -1 61374. 80995. 1196. o
-7 7 1 229989. 256136. 1494. o
7 7 -1 229077. 235514. 1494. o
-5 7 1 3622. 2989. 598. o
5 7 -1 2954. 2391. 1196. <
-3 7 1 1917. 6575. 897. o
3 7 -1 2016. 1793. 897. <
-1 7 1 168930. 179923. 1196. o
1 7 -1 164748. 191280. 1494. o
1 7 1 57039. 60971. 1196. o
-1 7 -1 59227. 55890. 1196. o
3 7 1 22123. 17335. 897. o
-3 7 -1 25412. 17634. 1196. o
5 7 1 43874. 49314. 1196. o
-5 7 -1 47160. 48119. 1196. o
7 7 1 246861. 258527. 1494. o
-7 7 -1 242973. 253147. 1494. o
9 7 1 107. 598. 1196. <
-9 7 -1 250. 3288. 1196. o
11 7 1 3529. 5978. 897. o
-11 7 -1 2952. 4483. 1196. o
13 7 1 125145. 127620. 1494. o
-13 7 -1 122638. 132103. 1494. o
15 7 1 35613. 34072. 1196. o
-15 7 -1 33836. 33773. 1196. o
17 7 1 8412. 5081. 897. o
-17 7 -1 10689. 5380. 897. o
19 7 1 15318. 12254. 897. o
-19 7 -1 16902. 11058. 1494. o
21 7 1 117888. 116262. 897. o
-21 7 -1 113190. 114768. 2092. o
23 7 1 853. 1494. 598. o
-23 7 -1 867. 598. 1494. <
25 7 1 3184. 1494. 897. <
-25 7 -1 2527. 1793. 1196. <
27 7 1 45972. 44532. 897. o
-27 7 -1 43720. 37359. 1793. o
29 7 1 11769. 8070. 897. o
-29 7 -1 11439. 6575. 1793. o
31 7 1 2015. 1793. 897. <
-31 7 -1 2690. 598. 1793. <
33 7 1 2926. 2690. 897. o
-33 7 -1 3047. 1494. 1494. <
35 7 1 33710. 24508. 897. o
-35 7 -1 31864. 20622. 1494. o
37 7 1 1055. 1196. 897. <
-37 7 -1 1143. 1793. 1196. <
39 7 1 1633. 1793. 897. <
-39 7 -1 1329. 1196. 1196. <
-36 8 1 316. 897. 1494. <
36 8 -1 362. 598. 897. <
-34 8 1 58. 2391. 1494. <
34 8 -1 27. 299. 897. <
-32 8 1 243. 2391. 1494. <
32 8 -1 118. 1196. 897. <
-30 8 1 238. 1793. 1494. <
30 8 -1 354. -299. 897. <
-28 8 1 244. -598. 1494. <
28 8 -1 363. 0. 897. <
-26 8 1 2398. 2391. 1494. <
26 8 -1 2307. 299. 897. <
-24 8 1 1491. 299. 1494. <
24 8 -1 2041. 1196. 897. <
-22 8 1 1747. 1494. 1494. <
22 8 -1 1865. -598. 897. <
-20 8 1 217. 299. 897. <
20 8 -1 145. 598. 897. <
-18 8 1 913. -598. 897. <
18 8 -1 754. 1196. 897. <
-16 8 1 1124. 598. 897. <
16 8 -1 1424. 0. 897. <
-14 8 1 140. 1494. 598. o
14 8 -1 91. 2391. 897. o
-12 8 1 2015. 299. 598. <
12 8 -1 2011. 1494. 897. <
-10 8 1 3436. 2690. 897. o
10 8 -1 4074. 2391. 897. o
-8 8 1 4137. 897. 897. <
8 8 -1 4130. 598. 897. <
-6 8 1 755. 598. 598. <
6 8 -1 597. 897. 897. <
-4 8 1 3584. 3885. 598. o
4 8 -1 3241. 4184. 897. o
-2 8 1 2438. 2391. 897. o
2 8 -1 2473. 1793. 897. <
0 8 1 1801. 897. 897. <
0 8 -1 1718. 1196. 897. <
2 8 1 1219. 598. 897. <
-2 8 -1 1456. 2092. 897. o
4 8 1 900. -299. 897. <
-4 8 -1 1038. 1793. 1196. <
6 8 1 2191. 3885. 897. o
-6 8 -1 2039. 2989. 1196. o
8 8 1 191. -299. 897. <
-8 8 -1 319. 598. 897. <
10 8 1 8057. 4483. 897. o
-10 8 -1 7694. 5380. 897. o
12 8 1 479. 1196. 897. <
-12 8 -1 384. 598. 1196. <
14 8 1 1350. 897. 897. <
-14 8 -1 1436. 897. 897. <
16 8 1 2138. -598. 897. <
-16 8 -1 2582. 598. 897. <
18 8 1 242. 2391. 897. o
-18 8 -1 211. 1494. 897. <
20 8 1 400. -598. 897. <
-20 8 -1 428. -1494. 1494. <
22 8 1 1204. 299. 598. <
-22 8 -1 1419. -299. 1494. <
24 8 1 4584. 5081. 598. o
-24 8 -1 4320. 3885. 1494. o
26 8 1 195. 897. 897. <
-26 8 -1 181. 1494. 1494. <
28 8 1 254. -598. 897. <
-28 8 -1 327. 299. 1494. <
30 8 1 1178. 598. 897. <
-30 8 -1 1420. 0. 1793. <
32 8 1 371. 299. 897. <
-32 8 -1 277. -299. 1793. <
34 8 1 543. 0. 897. <
-34 8 -1 643. 1793. 1494. <
-29 9 1 22138. 23312. 1793. o
29 9 -1 23587. 18231. 897. o
-27 9 1 3839. 299. 1494. <
27 9 -1 3950. 2989. 897. o
-25 9 1 2819. 0. 1494. <
25 9 -1 3199. 1196. 897. <
-23 9 1 22331. 17932. 1793. o
23 9 -1 25151. 15542. 897. o
-21 9 1 40884. 32876. 1793. o
21 9 -1 41797. 24209. 1196. o
-19 9 1 1026. 897. 897. <
19 9 -1 1447. 1793. 897. <
-17 9 1 187. 299. 598. <
17 9 -1 286. -1196. 897. <
-15 9 1 47208. 46625. 897. o
15 9 -1 48836. 38854. 1196. o
-13 9 1 9171. 5978. 598. o
13 9 -1 8467. 2391. 897. o
-11 9 1 6454. 3288. 598. o
11 9 -1 6193. 3586. 897. o
-9 9 1 29594. 32876. 897. o
9 9 -1 32173. 29589. 897. o
-7 9 1 74000. 48119. 897. o
7 9 -1 73006. 41544. 1196. o
-5 9 1 1688. 1196. 598. <
5 9 -1 1912. -598. 897. <
-3 9 1 4. 299. 598. <
3 9 -1 35. 897. 897. <
-1 9 1 55893. 49912. 897. o
1 9 -1 54913. 50809. 1196. o
1 9 1 9973. 5679. 897. o
-1 9 -1 10398. 6276. 897. o
3 9 1 8619. 6575. 897. o
-3 9 -1 8136. 6874. 897. o
5 9 1 22414. 17036. 897. o
-5 9 -1 22329. 18231. 1196. o
7 9 1 73595. 49016. 897. o
-7 9 -1 73952. 55292. 1196. o
9 9 1 1444. 897. 897. <
-9 9 -1 1293. 2391. 897. o
11 9 1 527. 1494. 897. <
-11 9 -1 743. 598. 897. <
13 9 1 43680. 37658. 897. o
-13 9 -1 43278. 46625. 1196. o
15 9 1 9446. 5679. 897. o
-15 9 -1 11409. 9564. 1196. o
17 9 1 5352. 6575. 897. o
-17 9 -1 5369. 8369. 1196. o
19 9 1 8108. 8070. 897. o
-19 9 -1 7894. 6874. 1793. o
21 9 1 49601. 35566. 897. o
-21 9 -1 50641. 35865. 1793. o
23 9 1 363. 0. 598. <
-23 9 -1 392. 598. 1793. <
25 9 1 809. 1494. 897. <
-25 9 -1 954. 2391. 1793. <
27 9 1 20402. 17335. 897. o
-27 9 -1 20943. 15542. 1793. o
29 9 1 5751. 4483. 897. o
-29 9 -1 6631. 1793. 1793. <
-20 10 1 572. -1196. 897. <
20 10 -1 537. 299. 897. <
-18 10 1 1021. 1196. 897. <
18 10 -1 797. 598. 897. <
-16 10 1 157. 897. 897. <
16 10 -1 94. 897. 897. <
-14 10 1 1079. 897. 598. <
14 10 -1 1024. 1494. 897. <
-12 10 1 473. 598. 897. <
12 10 -1 484. 598. 897. <
-10 10 1 147. 598. 897. <
10 10 -1 122. -1196. 897. <
-8 10 1 558. 1494. 598. o
8 10 -1 521. 2391. 598. o
-6 10 1 111. 1793. 598. o
6 10 -1 127. -598. 897. <
-4 10 1 399. -598. 598. <
4 10 -1 319. 299. 897. <
-2 10 1 11. 1793. 897. <
2 10 -1 28. 897. 897. <
0 10 1 930. 2092. 897. o
0 10 -1 876. 299. 897. <
2 10 1 540. 299. 897. <
-2 10 -1 671. 299. 897. <
4 10 1 319. 1196. 897. <
-4 10 -1 406. 598. 897. <
6 10 1 420. 897. 897. <
-6 10 -1 390. 598. 897. <
8 10 1 357. 598. 897. <
-8 10 -1 337. 598. 897. <
10 10 1 61. 598. 897. <
-10 10 -1 21. 598. 1196. <
12 10 1 158. -299. 897. <
-12 10 -1 121. 598. 1196. <
14 10 1 491. 1196. 897. <
-14 10 -1 439. 897. 1196. <
16 10 1 84. -299. 897. <
-16 10 -1 168. 598. 1196. <
18 10 1 287. 1494. 897. <
-18 10 -1 258. 1793. 1196. <
-52 0 2 919. 1196. 897. <
52 0 -2 684. -598. 1196. <
-50 0 2 6341. 4184. 1196. o
50 0 -2 6430. 4184. 1196. o
-48 0 2 213. -598. 897. <
48 0 -2 241. 897. 1196. <
-46 0 2 904. 897. 897. <
46 0 -2 1105. 299. 1196. <
-44 0 2 104319. 144955. 1793. o
44 0 -2 110626. 133896. 1793. o
-42 0 2 10338. 11955. 1196. o
42 0 -2 12328. 10461. 1196. o
-40 0 2 4406. 3586. 897. o
40 0 -2 3914. 1196. 1196. <
-38 0 2 6089. 7771. 1196. o
38 0 -2 7334. 4782. 1196. o
-36 0 2 14037. 7771. 1196. o
36 0 -2 17673. 4782. 1793. o
-34 0 2 876. 2092. 897. o
34 0 -2 840. 1793. 1793. <
-32 0 2 4958. 6874. 1494. o
32 0 -2 5339. 4782. 2092. o
-30 0 2 368076. 310531. 2690. o
30 0 -2 388264. 326970. 3288. o
-28 0 2 50590. 32577. 1793. o
28 0 -2 51999. 50211. 2391. o
-26 0 2 15101. 9863. 1793. o
26 0 -2 15875. 14346. 2391. o
-24 0 2 11889. 7771. 2092. o
24 0 -2 18342. 9863. 2092. o
-22 0 2 10477. 34968. 2391. o
22 0 -2 4995. 36164. 2391. o
-20 0 2 7355. 15840. 2391. o
20 0 -2 7947. 13449. 2092. o
-18 0 2 17674. 29589. 2391. o
18 0 -2 15566. 31382. 2391. o
-16 0 2 282725. 393320. 3885. o
16 0 -2 299151. 433369. 4483. o
-14 0 2 84633. 97134. 2690. o
14 0 -2 90362. 113573. 3288. o
-12 0 2 21556. 16438. 2092. o
12 0 -2 25725. 19128. 2690. o
-10 0 2 4976. 2989. 2092. <
10 0 -2 6434. 2690. 2391. <
-8 0 2 762148. 1397540. 8070. o
8 0 -2 726477. 1025140. 6276. o
-6 0 2 37935. 45429. 2092. o
6 0 -2 37279. 42440. 2092. o
-4 0 2 34756. 34072. 1793. o
4 0 -2 30447. 32577. 1793. o
-2 0 2 142851. 128815. 1494. o
0 0 2 74520. 94744. 2092. o
2 0 2 6944. 11955. 1494. o
-2 0 -2 7166. 12254. 1494. o
4 0 2 8852. 14047. 1494. o
-4 0 -2 14057. 14944. 1494. o
6 0 2 601467. 887361. 4483. o
-6 0 -2 575727. 928606. 4483. o
8 0 2 4929. 4483. 1494. o
-8 0 -2 9636. 5978. 1494. o
10 0 2 4351. 7472. 1793. o
-10 0 -2 9037. 7472. 1793. o
12 0 2 71530. 67546. 1793. o
-12 0 -2 61810. 64856. 1793. o
14 0 2 296272. 370904. 2989. o
-14 0 -2 313240. 365226. 2989. o
16 0 2 16912. 22416. 1494. o
-16 0 -2 16923. 23013. 1793. o
18 0 2 21357. 12553. 1494. o
-18 0 -2 23224. 11955. 1494. o
20 0 2 35873. 25703. 1494. o
-20 0 -2 5941. 28094. 1793. o
22 0 2 19088. 11357. 1494. o
-22 0 -2 15600. 11955. 1494. o
24 0 2 13193. 9564. 1196. o
-24 0 -2 16573. 11058. 1494. o
26 0 2 69552. 39153. 1494. o
-26 0 -2 57366. 70535. 1793. o
28 0 2 266430. 255240. 2391. o
-28 0 -2 261269. 490753. 3288. o
30 0 2 4493. 4483. 1196. o
-30 0 -2 3021. 7173. 1494. o
32 0 2 7431. 2092. 1196. <
-32 0 -2 8104. 3288. 1494. o
34 0 2 17574. 8070. 1196. o
-34 0 -2 9787. 12852. 1196. o
36 0 2 10942. 4483. 1196. o
-36 0 -2 7674. 8070. 1196. o
38 0 2 5365. 598. 1196. <
-38 0 -2 7229. 5081. 1196. o
40 0 2 22073. 8966. 1196. o
-40 0 -2 16871. 17932. 1196. o
42 0 2 80448. 118355. 1494. o
-42 0 -2 79539. 157208. 1793. o
44 0 2 954. -897. 897. <
-44 0 -2 637. 897. 897. <
46 0 2 4692. -897. 897. <
-46 0 -2 4870. -598. 1196. <
48 0 2 3087. 4483. 897. o
-48 0 -2 3348. 6575. 1196. o
50 0 2 1607. 299. 897. <
-50 0 -2 715. 1793. 897. <
-53 1 2 173. 598. 598. <
53 1 -2 162. -299. 897. <
-51 1 2 32. 897. 598. <
51 1 -2 33. -299. 897. <
-49 1 2 212. -299. 598. <
49 1 -2 219. 598. 598. <
-47 1 2 2635. 2989. 598. o
47 1 -2 2618. 2690. 897. o
-45 1 2 508. 598. 598. <
45 1 -2 491. 598. 897. <
-43 1 2 125. 598. 598. <
43 1 -2 119. 598. 897. <
-41 1 2 1006. 598. 598. <
41 1 -2 1023. 299. 897. <
-39 1 2 3232. 2690. 897. o
39 1 -2 3123. 598. 897. <
-37 1 2 502. 598. 598. <
37 1 -2 519. 299. 1196. <
-35 1 2 1172. 598. 598. <
35 1 -2 1188. 598. 1196. <
-33 1 2 46790. 46027. 1196. o
33 1 -2 46644. 37658. 1494. o
-31 1 2 1317. 598. 897. <
31 1 -2 1234. -299. 1196. <
-29 1 2 1744. 2391. 1196. <
29 1 -2 1720. 1793. 1494. <
-27 1 2 16001. 16139. 1196. o
27 1 -2 16195. 14346. 1494. o
-25 1 2 31680. 32577. 1494. o
25 1 -2 31414. 29589. 1494. o
-23 1 2 3014. 3288. 1196. o
23 1 -2 3121. 2989. 1494. <
-21 1 2 332. 897. 1196. <
21 1 -2 359. -299. 1494. <
-19 1 2 283335. 291105. 2391. o
19 1 -2 281820. 345500. 2690. o
-17 1 2 5615. 5679. 1494. o
17 1 -2 5668. 7173. 1494. o
-15 1 2 9945. 7173. 1793. o
15 1 -2 10310. 11058. 1793. o
-13 1 2 31828. 23611. 2092. o
13 1 -2 32738. 31382. 2092. o
-11 1 2 42480. 45130. 2690. o
11 1 -2 41213. 17036. 1793. o
-9 1 2 1375. 2989. 1494. <
9 1 -2 1235. -1196. 897. <
-7 1 2 3880. 3288. 1494. o
7 1 -2 4132. 3288. 1494. o
-5 1 2 133388. 127919. 2391. o
5 1 -2 134868. 118952. 1793. o
-3 1 2 7978. 2391. 1793. <
3 1 -2 7877. 1793. 1196. <
-1 1 2 6316. 2989. 1196. o
1 1 -2 6115. 2690. 897. o
1 1 2 5787. 4184. 1494. o
-1 1 -2 6082. 4184. 1196. o
3 1 2 115334. 107296. 1494. o
-3 1 -2 115493. 108492. 2690. o
5 1 2 223. 1494. 897. <
-5 1 -2 220. 1196. 2092. <
7 1 2 389. 1793. 1196. <
-7 1 -2 404. 1793. 1196. <
9 1 2 52124. 39153. 1494. o
-9 1 -2 52426. 40946. 1196. o
11 1 2 27080. 19128. 1494. o
-11 1 -2 26992. 20622. 1196. o
13 1 2 3852. 3586. 1196. o
-13 1 -2 3895. 4184. 1196. o
15 1 2 14400. 12254. 1196. o
-15 1 -2 14637. 14047. 1196. o
17 1 2 223528. 219972. 1494. o
-17 1 -2 223461. 265700. 1793. o
19 1 2 496. 299. 897. <
-19 1 -2 464. 1196. 1196. <
21 1 2 2503. 598. 897. <
-21 1 -2 2479. 897. 1196. <
23 1 2 33098. 31083. 897. o
-23 1 -2 33637. 41842. 1196. o
25 1 2 10259. 9564. 897. o
-25 1 -2 10074. 11058. 1196. o
27 1 2 1469. 598. 897. <
-27 1 -2 1415. 1793. 897. <
29 1 2 4614. 1793. 598. o
-29 1 -2 4700. 2391. 897. o
31 1 2 37515. 40049. 897. o
-31 1 -2 37756. 55292. 1196. o
33 1 2 782. 299. 897. <
-33 1 -2 750. 299. 897. <
35 1 2 718. 598. 897. <
-35 1 -2 686. 0. 897. <
37 1 2 2330. 1494. 598. o
-37 1 -2 2368. 3586. 897. o
39 1 2 233. -299. 598. <
-39 1 -2 220. -598. 598. <
41 1 2 286. 598. 598. <
-41 1 -2 281. 598. 598. <
43 1 2 1094. -598. 598. <
-43 1 -2 1147. 598. 598. <
45 1 2 2465. 1793. 598. o
-45 1 -2 2454. 2391. 598. o
47 1 2 541. 299. 598. <
-47 1 -2 529. 299. 598. <
49 1 2 107. 598. 598. <
-49 1 -2 112. 1196. 598. <
51 1 2 161. 0. 598. <
-51 1 -2 156. 598. 598. <
-52 2 2 409. 0. 598. <
52 2 -2 114. 0. 598. <
-50 2 2 7345. 4782. 598. o
50 2 -2 4917. 4483. 897. o
-48 2 2 576. 897. 598. <
48 2 -2 577. 897. 598. <
-46 2 2 1540. 1196. 598. <
46 2 -2 1473. 2690. 897. o
-44 2 2 55760. 68144. 1196. o
44 2 -2 55072. 61568. 1196. o
-42 2 2 20756. 18829. 897. o
42 2 -2 19730. 13449. 897. o
-40 2 2 4368. 2391. 897. o
40 2 -2 3629. 598. 897. <
-38 2 2 3696. 598. 897. <
38 2 -2 1374. 0. 897. <
-36 2 2 40535. 31681. 1196. o
36 2 -2 28936. 13150. 897. o
-34 2 2 7973. 10760. 1196. o
34 2 -2 7871. 5978. 1196. o
-32 2 2 19427. 21519. 1196. o
32 2 -2 19600. 13150. 1196. o
-30 2 2 304002. 404378. 2391. o
30 2 -2 296182. 334143. 2391. o
-28 2 2 164215. 218478. 1793. o
28 2 -2 162638. 189188. 1793. o
-26 2 2 33263. 35267. 1196. o
26 2 -2 35240. 29290. 1494. o
-24 2 2 23901. 26002. 1196. o
24 2 -2 22448. 21818. 1793. o
-22 2 2 260056. 384951. 2391. o
22 2 -2 238770. 331453. 2690. o
-20 2 2 31089. 40647. 1494. o
20 2 -2 32273. 36164. 2092. o
-18 2 2 88802. 127620. 1793. o
18 2 -2 88536. 115067. 2690. o
-16 2 2 1386270. 2260100. 5978. o
16 2 -2 1380850. 2320170. 7173. o
-14 2 2 971389. 1506630. 5081. o
14 2 -2 986153. 1636940. 5679. o
-12 2 2 208698. 259723. 2391. o
12 2 -2 217571. 283932. 2989. o
-10 2 2 164291. 206822. 2391. o
10 2 -2 161243. 203235. 2690. o
-8 2 2 1166670. 2215860. 6575. o
8 2 -2 1129640. 2037130. 6575. o
-6 2 2 99199. 128516. 2092. o
6 2 -2 98856. 102215. 2391. o
-4 2 2 289845. 345201. 2690. o
4 2 -2 288188. 238204. 2690. o
0 2 2 2321450. 2988750. 6575. o
2 2 2 335057. 346695. 2690. o
-2 2 -2 337250. 224455. 2391. o
4 2 2 142192. 159002. 1793. o
-4 2 -2 141871. 115067. 1793. o
6 2 2 1078840. 1483920. 4483. o
-6 2 -2 1049050. 926812. 6276. o
8 2 2 75125. 88168. 1494. o
-8 2 -2 73227. 57982. 2989. o
10 2 2 177885. 173049. 1494. o
-10 2 -2 179915. 153323. 3288. o
12 2 2 1024890. 1208650. 2690. o
-12 2 -2 1019810. 1056820. 5978. o
14 2 2 1055460. 1265140. 3587. o
-14 2 -2 1075770. 1171590. 5081. o
16 2 2 114321. 112078. 1494. o
-16 2 -2 115768. 135988. 1494. o
18 2 2 53014. 44532. 1196. o
-18 2 -2 53645. 50809. 1196. o
20 2 2 217474. 313221. 1793. o
-20 2 -2 229552. 349385. 1793. o
22 2 2 10593. 11357. 897. o
-22 2 -2 9675. 13748. 897. o
24 2 2 30713. 30485. 897. o
-24 2 -2 33126. 36164. 897. o
26 2 2 175626. 202339. 1494. o
-26 2 -2 177207. 235514. 1494. o
28 2 2 207800. 308738. 1793. o
-28 2 -2 224732. 358352. 1793. o
30 2 2 16840. 19128. 897. o
-30 2 -2 15026. 24508. 897. o
32 2 2 12717. 9265. 897. o
-32 2 -2 12084. 13150. 897. o
34 2 2 22708. 27795. 897. o
-34 2 -2 33035. 34371. 897. o
36 2 2 1422. 598. 598. <
-36 2 -2 376. -598. 897. <
38 2 2 4240. 2690. 598. o
-38 2 -2 5828. 2989. 897. o
40 2 2 24318. 16737. 897. o
-40 2 -2 23468. 31681. 897. o
42 2 2 39136. 59177. 1196. o
-42 2 -2 42446. 73225. 1196. o
44 2 2 1058. 1793. 598. o
-44 2 -2 693. 2989. 598. o
46 2 2 3531. 1793. 598. o
-46 2 -2 3432. 2391. 598. o
48 2 2 2613. 5081. 598. o
-48 2 -2 4847. 5380. 598. o
50 2 2 1133. 598. 598. <
-50 2 -2 399. 299. 598. <
-51 3 2 443. 1494. 897. <
51 3 -2 417. -299. 897. <
-49 3 2 855. 897. 897. <
49 3 -2 941. 897. 897. <
-47 3 2 749. 2092. 897. o
47 3 -2 675. 1793. 897. <
-45 3 2 859. 1494. 897. <
45 3 -2 979. 598. 897. <
-43 3 2 1709. 2391. 1196. <
43 3 -2 1801. 0. 897. <
-41 3 2 14240. 14047. 1196. o
41 3 -2 13935. 11357. 1196. o
-39 3 2 7776. 8369. 1494. o
39 3 -2 8203. 5679. 1196. o
-37 3 2 1583. 897. 1793. <
37 3 -2 1479. 1196. 897. <
-35 3 2 285. 598. 1494. <
35 3 -2 324. 0. 1196. <
-33 3 2 212. 1793. 1494. <
33 3 -2 165. 897. 897. <
-31 3 2 4434. 5081. 1196. o
31 3 -2 4918. 4483. 897. o
-29 3 2 10611. 10461. 1196. o
29 3 -2 10924. 7771. 897. o
-27 3 2 80903. 108193. 1793. o
27 3 -2 80046. 78305. 1196. o
-25 3 2 93082. 132701. 1793. o
25 3 -2 94596. 96238. 1196. o
-23 3 2 14446. 15840. 1196. o
23 3 -2 14034. 11656. 1196. o
-21 3 2 4982. 3586. 1196. o
21 3 -2 4709. 2989. 1196. o
-19 3 2 4556. 4483. 1196. o
19 3 -2 4708. 3586. 1196. o
-17 3 2 13437. 19128. 1196. o
17 3 -2 13921. 15840. 1494. o
-15 3 2 25817. 29290. 1494. o
15 3 -2 25566. 26301. 1793. o
-13 3 2 115380. 131505. 1793. o
13 3 -2 114225. 112676. 2092. o
-11 3 2 237878. 282736. 2391. o
11 3 -2 241610. 290806. 2989. o
-9 3 2 24067. 24807. 1494. o
9 3 -2 23878. 23611. 1793. o
-7 3 2 7814. 5978. 1494. o
7 3 -2 7684. 5081. 1793. o
-5 3 2 41749. 58878. 1494. o
5 3 -2 41760. 55591. 1793. o
-3 3 2 875. 598. 1196. <
3 3 -2 753. 1196. 1793. <
-1 3 2 2764. 1793. 1196. <
1 3 -2 2825. 1793. 1793. <
1 3 2 4580. 1196. 897. <
-1 3 -2 4289. 598. 1494. <
3 3 2 36505. 48717. 1196. o
-3 3 -2 37029. 46625. 1494. o
5 3 2 8911. 8369. 1196. o
-5 3 -2 8904. 6874. 1494. o
7 3 2 12156. 10162. 1196. o
-7 3 -2 12365. 8369. 1196. o
9 3 2 217938. 251354. 1793. o
-9 3 -2 216821. 205028. 1494. o
11 3 2 96000. 98031. 1196. o
-11 3 -2 96105. 60373. 2092. o
13 3 2 20070. 18829. 897. o
-13 3 -2 19959. 9265. 1793. o
15 3 2 14189. 20025. 897. o
-15 3 -2 13571. 11357. 1494. o
17 3 2 14938. 2989. 598. o
-17 3 -2 14682. 1793. 1494. <
19 3 2 2731. 2989. 598. o
-19 3 -2 2951. 1196. 1196. <
21 3 2 7613. 6276. 598. o
-21 3 -2 7834. 4483. 1196. o
23 3 2 81346. 92352. 897. o
-23 3 -2 79936. 63959. 1494. o
25 3 2 60164. 67247. 897. o
-25 3 -2 61069. 52602. 1196. o
27 3 2 9175. 7472. 897. o
-27 3 -2 9095. 6874. 897. o
29 3 2 4632. 4483. 897. o
-29 3 -2 4405. 2989. 897. o
31 3 2 941. 1196. 598. <
-31 3 -2 832. 0. 897. <
33 3 2 517. -897. 598. <
-33 3 -2 472. -598. 897. <
35 3 2 2592. 598. 598. <
-35 3 -2 2691. 1793. 897. <
37 3 2 9911. 7771. 598. o
-37 3 -2 9573. 8369. 897. o
39 3 2 11765. 11955. 598. o
-39 3 -2 12064. 12852. 897. o
41 3 2 1669. 897. 598. <
-41 3 -2 1546. 1494. 897. <
43 3 2 1397. 897. 598. <
-43 3 -2 1375. 598. 897. <
45 3 2 626. 598. 598. <
-45 3 -2 665. 897. 897. <
47 3 2 1238. 1196. 598. <
-47 3 -2 1150. 0. 897. <
49 3 2 1014. 0. 598. <
-49 3 -2 1061. -897. 897. <
-50 4 2 7299. 5081. 1196. o
50 4 -2 7602. 4483. 598. o
-48 4 2 224. -1196. 1196. <
48 4 -2 211. 897. 598. <
-46 4 2 773. 897. 1196. <
46 4 -2 928. 299. 897. <
-44 4 2 37142. 41245. 1494. o
44 4 -2 40102. 27496. 897. o
-42 4 2 10122. 10760. 1494. o
42 4 -2 11090. 6276. 897. o
-40 4 2 5093. 6575. 1196. o
40 4 -2 5931. 2989. 897. o
-38 4 2 17297. 18829. 1196. o
38 4 -2 20562. 11955. 897. o
-36 4 2 31132. 45130. 1494. o
36 4 -2 33146. 30784. 897. o
-34 4 2 939. 897. 1494. <
34 4 -2 1041. 598. 897. <
-32 4 2 601. 2391. 1196. <
32 4 -2 773. 897. 897. <
-30 4 2 112250. 170060. 2092. o
30 4 -2 119412. 118056. 1494. o
-28 4 2 34328. 49016. 1494. o
28 4 -2 38181. 32876. 897. o
-26 4 2 13235. 12553. 1196. o
26 4 -2 17238. 8369. 897. o
-24 4 2 24718. 21818. 1196. o
24 4 -2 32897. 17036. 1196. o
-22 4 2 37703. 49912. 1196. o
22 4 -2 33712. 39750. 1196. o
-20 4 2 1419. 598. 1196. <
20 4 -2 2082. 1196. 897. <
-18 4 2 4859. 3288. 1196. o
18 4 -2 2537. 2391. 897. o
-16 4 2 79631. 95939. 1494. o
16 4 -2 79157. 86674. 1494. o
-14 4 2 21152. 29290. 1196. o
14 4 -2 29423. 32278. 1494. o
-12 4 2 4098. 2391. 897. o
12 4 -2 10722. 2391. 1196. <
-10 4 2 885. 2391. 1196. <
10 4 -2 3975. 3288. 1494. o
-8 4 2 19524. 20324. 1196. o
8 4 -2 10591. 19427. 1196. o
-6 4 2 884. 1494. 1196. <
6 4 -2 2051. 1793. 1196. <
-4 4 2 6816. 1793. 897. <
4 4 -2 2211. 1793. 1196. <
-2 4 2 15926. 15243. 897. o
2 4 -2 14910. 14047. 1494. o
0 4 2 6774. 14346. 897. o
0 4 -2 22041. 14047. 1196. o
2 4 2 90. 1494. 897. <
-2 4 -2 2240. 1494. 1196. <
4 4 2 2336. 897. 897. <
-4 4 -2 1135. 299. 1196. <
6 4 2 12379. 20622. 897. o
-6 4 -2 20338. 20622. 1196. o
8 4 2 4330. 5380. 897. o
-8 4 -2 4805. 5081. 897. o
10 4 2 11068. 3288. 897. o
-10 4 -2 6348. 3586. 897. o
12 4 2 48922. 31980. 897. o
-12 4 -2 35618. 31382. 1793. o
14 4 2 50739. 71730. 897. o
-14 4 -2 58730. 62166. 2092. o
16 4 2 1476. 2092. 598. o
-16 4 -2 2440. 299. 1494. <
18 4 2 1434. 598. 598. <
-18 4 -2 909. 1196. 1494. <
20 4 2 35957. 34670. 897. o
-20 4 -2 28321. 23013. 1494. o
22 4 2 25476. 20921. 897. o
-22 4 -2 23049. 11656. 1196. o
24 4 2 15299. 11357. 897. o
-24 4 -2 13603. 5380. 1196. o
26 4 2 43631. 38256. 897. o
-26 4 -2 36961. 23013. 1196. o
28 4 2 81499. 92651. 897. o
-28 4 -2 76526. 65454. 1494. o
30 4 2 1960. -299. 598. <
-30 4 -2 1671. 1196. 897. <
32 4 2 219. -598. 598. <
-32 4 -2 167. 598. 897. <
34 4 2 27401. 16737. 598. o
-34 4 -2 23327. 21519. 897. o
36 4 2 15735. 10760. 598. o
-36 4 -2 14512. 11357. 897. o
38 4 2 5053. 3586. 598. o
-38 4 -2 5013. 4782. 897. o
40 4 2 12440. 9265. 598. o
-40 4 -2 10952. 10461. 897. o
42 4 2 27303. 30485. 897. o
-42 4 -2 26079. 31681. 1196. o
44 4 2 464. 299. 598. <
-44 4 -2 278. 299. 897. <
46 4 2 222. 0. 598. <
-46 4 -2 261. -299. 598. <
-47 5 2 3771. 897. 1196. <
47 5 -2 3655. 1793. 897. <
-45 5 2 263. 2690. 1494. <
45 5 -2 269. 897. 897. <
-43 5 2 17. -299. 1494. <
43 5 -2 30. -299. 897. <
-41 5 2 2123. 299. 1494. <
41 5 -2 2071. 897. 897. <
-39 5 2 373. 897. 1494. <
39 5 -2 251. 598. 897. <
-37 5 2 197. 1196. 1494. <
37 5 -2 251. 598. 897. <
-35 5 2 2351. -598. 1196. <
35 5 -2 2348. 299. 897. <
-33 5 2 39900. 49314. 1494. o
33 5 -2 39351. 35267. 1196. o
-31 5 2 217. 2092. 1196. <
31 5 -2 187. 598. 897. <
-29 5 2 155. 1793. 1196. <
29 5 -2 108. 0. 897. <
-27 5 2 680. 598. 1494. <
27 5 -2 792. 299. 897. <
-25 5 2 1928. 3288. 1196. o
25 5 -2 1496. 1196. 897. <
-23 5 2 2002. 2391. 1196. <
23 5 -2 2185. 598. 897. <
-21 5 2 1393. 897. 1196. <
21 5 -2 1395. 897. 897. <
-19 5 2 160312. 200844. 1793. o
19 5 -2 159524. 170359. 1494. o
-17 5 2 2305. 5679. 1196. o
17 5 -2 1914. 4483. 1196. o
-15 5 2 2011. 2690. 897. o
15 5 -2 1907. 1793. 1196. <
-13 5 2 3472. 1196. 897. <
13 5 -2 3493. 1793. 1196. <
-11 5 2 700. -299. 897. <
11 5 -2 910. 1793. 1196. <
-9 5 2 454. 1196. 897. <
9 5 -2 375. 1793. 1196. <
-7 5 2 1946. 2391. 897. o
7 5 -2 1985. 2391. 1196. <
-5 5 2 110488. 123137. 1196. o
5 5 -2 109451. 121044. 1494. o
-3 5 2 1346. 4782. 1196. o
3 5 -2 1263. 4483. 1196. o
-1 5 2 52. 0. 897. <
1 5 -2 46. 598. 1196. <
1 5 2 5136. 5679. 897. o
-1 5 -2 5600. 6575. 1196. o
3 5 2 95576. 108492. 1196. o
-3 5 -2 96915. 110584. 1494. o
5 5 2 1472. 1793. 598. o
-5 5 -2 1459. 1196. 1196. <
7 5 2 383. 1793. 897. <
-7 5 -2 500. 1494. 897. <
9 5 2 4486. 1196. 897. <
-9 5 -2 4615. 897. 897. <
11 5 2 5215. 1196. 598. <
-11 5 -2 5092. 1196. 897. <
13 5 2 2103. 598. 598. <
-13 5 -2 2095. 897. 897. <
15 5 2 5159. 5081. 897. o
-15 5 -2 5834. 3586. 1494. o
17 5 2 128368. 147346. 897. o
-17 5 -2 129033. 142265. 2092. o
19 5 2 11. 598. 598. <
-19 5 -2 16. -598. 1494. <
21 5 2 379. 598. 598. <
-21 5 -2 288. 2092. 1494. <
23 5 2 1908. 1196. 598. <
-23 5 -2 2330. 2092. 1196. <
25 5 2 1177. 1196. 598. <
-25 5 -2 1151. 299. 1196. <
27 5 2 807. -598. 598. <
-27 5 -2 721. 598. 1196. <
29 5 2 1192. 598. 598. <
-29 5 -2 1457. -598. 1196. <
31 5 2 29676. 28991. 897. o
-31 5 -2 29713. 17932. 1196. o
33 5 2 1497. 299. 598. <
-33 5 -2 1525. 1494. 897. <
35 5 2 184. 0. 598. <
-35 5 -2 191. 299. 897. <
37 5 2 35. 598. 598. <
-37 5 -2 22. 897. 897. <
39 5 2 1158. 1494. 598. o
-39 5 -2 1295. -299. 897. <
41 5 2 506. -598. 598. <
-41 5 -2 428. 598. 897. <
43 5 2 964. 299. 598. <
-43 5 -2 1044. 299. 897. <
45 5 2 3202. 2989. 598. o
-45 5 -2 3206. 4483. 897. o
-44 6 2 11957. 10760. 1793. o
44 6 -2 9746. 6575. 1196. o
-42 6 2 11619. 17335. 1494. o
42 6 -2 11228. 8369. 1196. o
-40 6 2 2970. 5679. 1494. o
40 6 -2 3316. 2092. 897. o
-38 6 2 5072. 7771. 1494. o
38 6 -2 5085. 5081. 897. o
-36 6 2 45873. 64557. 1494. o
36 6 -2 41141. 42141. 1196. o
-34 6 2 1279. 2092. 1196. <
34 6 -2 1285. 1196. 897. <
-32 6 2 5272. 6276. 1196. o
32 6 -2 5072. 3885. 897. o
-30 6 2 60888. 80398. 1494. o
30 6 -2 52161. 55890. 1196. o
-28 6 2 59342. 85478. 1494. o
28 6 -2 59958. 66649. 1196. o
-26 6 2 16181. 23013. 1196. o
26 6 -2 18364. 15840. 897. o
-24 6 2 16955. 25404. 1494. o
24 6 -2 16717. 18231. 897. o
-22 6 2 235966. 390630. 2391. o
22 6 -2 229875. 308738. 1494. o
-20 6 2 2357. 6575. 1494. o
20 6 -2 2607. 2989. 897. o
-18 6 2 20340. 22117. 1196. o
18 6 -2 19807. 22117. 1196. o
-16 6 2 258697. 309934. 1793. o
16 6 -2 248929. 316210. 2092. o
-14 6 2 224336. 295887. 1793. o
14 6 -2 228423. 315313. 2092. o
-12 6 2 56499. 64258. 1196. o
12 6 -2 60741. 65155. 1494. o
-10 6 2 40590. 45130. 1196. o
10 6 -2 40868. 47222. 1494. o
-8 6 2 718012. 975828. 2690. o
8 6 -2 716493. 1026040. 3288. o
-6 6 2 12669. 17036. 897. o
6 6 -2 12013. 17335. 1196. o
-4 6 2 64406. 73822. 1196. o
4 6 -2 61542. 74121. 1196. o
-2 6 2 497871. 605820. 2092. o
2 6 -2 493189. 615683. 2391. o
0 6 2 395063. 519146. 1793. o
0 6 -2 394027. 490156. 2391. o
2 6 2 62850. 77110. 1196. o
-2 6 -2 66596. 75317. 1196. o
4 6 2 22599. 25703. 897. o
-4 6 -2 23456. 25703. 1196. o
6 6 2 673899. 963873. 2391. o
-6 6 -2 673039. 968954. 2690. o
8 6 2 28499. 31083. 897. o
-8 6 -2 26612. 34072. 1196. o
10 6 2 57015. 65454. 1196. o
-10 6 -2 53778. 63660. 1196. o
12 6 2 252101. 333844. 1494. o
-12 6 -2 250518. 332648. 1793. o
14 6 2 176020. 269586. 1494. o
-14 6 -2 179142. 262413. 1793. o
16 6 2 20814. 25106. 1196. o
-16 6 -2 22712. 24508. 2092. o
18 6 2 6125. 7472. 598. o
-18 6 -2 6269. 6276. 1793. o
20 6 2 195691. 275563. 1196. o
-20 6 -2 202462. 249561. 2690. o
22 6 2 12771. 11656. 598. o
-22 6 -2 12668. 11955. 1494. o
24 6 2 16439. 10760. 598. o
-24 6 -2 15185. 12852. 1494. o
26 6 2 59938. 59775. 897. o
-26 6 -2 61302. 49314. 1494. o
28 6 2 31872. 42141. 897. o
-28 6 -2 36409. 28094. 1196. o
30 6 2 4312. 4483. 897. o
-30 6 -2 4291. 1793. 1196. <
32 6 2 1476. 2092. 897. o
-32 6 -2 1103. 2391. 1196. <
34 6 2 32363. 31980. 897. o
-34 6 -2 36062. 20622. 1196. o
36 6 2 4490. 4782. 598. o
-36 6 -2 4658. 2092. 1196. <
38 6 2 3119. 2690. 598. o
-38 6 -2 2772. 2989. 897. o
40 6 2 10312. 9265. 598. o
-40 6 -2 10825. 9564. 1196. o
42 6 2 5644. 6575. 598. o
-42 6 -2 6750. 6575. 1196. o
-39 7 2 3096. 6575. 1494. o
39 7 -2 3566. 1793. 897. <
-37 7 2 1071. 1793. 1196. <
37 7 -2 998. 598. 897. <
-35 7 2 149. -1793. 1196. <
35 7 -2 95. 299. 897. <
-33 7 2 875. 0. 1196. <
33 7 -2 845. 299. 897. <
-31 7 2 242. 0. 1196. <
31 7 -2 452. 0. 897. <
-29 7 2 1958. 1494. 1494. <
29 7 -2 2062. 0. 897. <
-27 7 2 12614. 10461. 1494. o
27 7 -2 12073. 7173. 897. o
-25 7 2 17614. 21818. 1494. o
25 7 -2 19028. 17036. 897. o
-23 7 2 4742. 1793. 1196. <
23 7 -2 4551. 897. 897. <
-21 7 2 1184. 299. 1196. <
21 7 -2 973. 0. 897. <
-19 7 2 4198. 5380. 897. o
19 7 -2 4322. 5978. 1196. o
-17 7 2 1040. 1196. 897. <
17 7 -2 1276. 897. 1196. <
-15 7 2 5013. 2690. 897. o
15 7 -2 4965. 2690. 1196. o
-13 7 2 16311. 12553. 897. o
13 7 -2 16186. 15243. 1196. o
-11 7 2 29811. 23910. 897. o
11 7 -2 31092. 27198. 1196. o
-9 7 2 3257. 299. 897. <
9 7 -2 3015. 598. 1196. <
-7 7 2 717. 598. 897. <
7 7 -2 586. 598. 1196. <
-5 7 2 1953. 598. 897. <
5 7 -2 1799. 897. 897. <
-3 7 2 1618. -299. 897. <
3 7 -2 1387. 299. 1196. <
-1 7 2 2660. 598. 897. <
1 7 -2 2593. -598. 1196. <
1 7 2 372. 598. 897. <
-1 7 -2 460. 1196. 1196. <
3 7 2 1391. 1196. 897. <
-3 7 -2 1540. 299. 1196. <
5 7 2 178. 598. 897. <
-5 7 -2 146. 598. 1196. <
7 7 2 1889. 598. 897. <
-7 7 -2 2107. 1196. 1196. <
9 7 2 34437. 32577. 897. o
-9 7 -2 33272. 34670. 1196. o
11 7 2 8185. 8966. 897. o
-11 7 -2 8284. 8667. 1196. o
13 7 2 3137. 1494. 897. <
-13 7 -2 3199. 1494. 1196. <
15 7 2 1326. 1793. 897. <
-15 7 -2 1155. 2690. 1196. o
17 7 2 4127. 5081. 897. o
-17 7 -2 3929. 4782. 1793. o
19 7 2 1232. 0. 598. <
-19 7 -2 1440. 897. 1494. <
21 7 2 2970. 1494. 598. o
-21 7 -2 3282. 2391. 1494. <
23 7 2 19238. 12553. 598. o
-23 7 -2 18195. 15840. 1793. o
25 7 2 5971. 6276. 897. o
-25 7 -2 6333. 4184. 1494. o
27 7 2 1449. 2092. 598. o
-27 7 -2 1405. 1196. 1494. <
29 7 2 745. 897. 897. <
-29 7 -2 582. -598. 1196. <
31 7 2 353. 299. 897. <
-31 7 -2 348. -598. 1196. <
33 7 2 673. 0. 897. <
-33 7 -2 778. 0. 1196. <
35 7 2 487. 897. 897. <
-35 7 -2 577. 598. 1196. <
37 7 2 3500. 1494. 897. <
-37 7 -2 3137. 2989. 1196. o
-36 8 2 22129. 27198. 1793. o
36 8 -2 24064. 13449. 1196. o
-34 8 2 114. 1196. 1494. <
34 8 -2 145. 299. 897. <
-32 8 2 77. 299. 1494. <
32 8 -2 10. 0. 897. <
-30 8 2 22993. 32577. 1494. o
30 8 -2 24096. 20921. 897. o
-28 8 2 9363. 14346. 1494. o
28 8 -2 10650. 9265. 897. o
-26 8 2 3084. 5679. 1494. o
26 8 -2 3529. 3288. 897. o
-24 8 2 11448. 14346. 1494. o
24 8 -2 13529. 10760. 897. o
-22 8 2 46241. 59775. 1793. o
22 8 -2 49022. 43636. 897. o
-20 8 2 41. 598. 897. <
20 8 -2 54. 897. 1196. <
-18 8 2 591. 1494. 897. <
18 8 -2 67. 1196. 1196. <
-16 8 2 20379. 21818. 598. o
16 8 -2 19142. 22117. 1196. o
-14 8 2 10514. 12852. 897. o
14 8 -2 12263. 11357. 897. o
-12 8 2 1379. 2690. 598. o
12 8 -2 1343. 2092. 897. o
-10 8 2 5453. 5081. 598. o
10 8 -2 6079. 4483. 897. o
-8 8 2 32618. 35267. 897. o
8 8 -2 34369. 37658. 1196. o
-6 8 2 1201. 2092. 598. o
6 8 -2 1523. 1793. 1196. <
-4 8 2 373. 1793. 598. o
4 8 -2 222. 598. 897. <
-2 8 2 12628. 10162. 897. o
2 8 -2 9263. 11955. 1196. o
0 8 2 4122. 9564. 897. o
0 8 -2 8521. 8667. 1196. o
2 8 2 353. 1494. 897. <
-2 8 -2 356. 1793. 1196. <
4 8 2 2389. 1494. 897. <
-4 8 -2 1832. 1196. 897. <
6 8 2 34153. 38256. 1196. o
-6 8 -2 35075. 37060. 1196. o
8 8 2 2697. 2690. 897. o
-8 8 -2 3830. 6575. 897. o
10 8 2 1384. 4184. 897. o
-10 8 -2 1413. 2989. 1196. o
12 8 2 16954. 14346. 897. o
-12 8 -2 13474. 16737. 1196. o
14 8 2 12228. 18530. 897. o
-14 8 -2 14442. 20921. 1196. o
16 8 2 632. 1793. 897. <
-16 8 -2 984. 1793. 1196. <
18 8 2 407. 598. 897. <
-18 8 -2 244. 598. 1793. <
20 8 2 44667. 33474. 897. o
-20 8 -2 42061. 41544. 2092. o
22 8 2 6646. 8369. 598. o
-22 8 -2 6857. 7771. 1793. o
24 8 2 4084. 4483. 598. o
-24 8 -2 3700. 4184. 1793. o
26 8 2 12778. 12553. 897. o
-26 8 -2 11391. 11058. 1494. o
28 8 2 15116. 18530. 897. o
-28 8 -2 14228. 11656. 1494. o
30 8 2 533. 598. 897. <
-30 8 -2 827. 0. 1494. <
32 8 2 23. -598. 897. <
-32 8 -2 82. 1793. 1494. <
-29 9 2 508. 299. 1494. <
29 9 -2 399. 299. 897. <
-27 9 2 1147. 299. 1494. <
27 9 -2 1300. 1196. 897. <
-25 9 2 514. 2391. 1494. <
25 9 -2 278. 299. 897. <
-23 9 2 930. 1793. 1196. <
23 9 -2 1043. 299. 897. <
-21 9 2 318. 598. 1196. <
21 9 -2 348. 0. 1196. <
-19 9 2 7760. 2690. 897. o
19 9 -2 7446. 2690. 897. o
-17 9 2 245. 1196. 598. <
17 9 -2 156. 897. 897. <
-15 9 2 454. 1196. 897. <
15 9 -2 375. 0. 1196. <
-13 9 2 2382. 299. 598. <
13 9 -2 2536. 598. 897. <
-11 9 2 420. 1196. 897. <
11 9 -2 311. 897. 1196. <
-9 9 2 648. 1196. 598. <
9 9 -2 649. 598. 1196. <
-7 9 2 486. 598. 598. <
7 9 -2 610. -299. 1196. <
-5 9 2 3425. 598. 897. <
5 9 -2 3213. 598. 1196. <
-3 9 2 100. -299. 897. <
3 9 -2 113. 0. 1196. <
-1 9 2 404. 598. 897. <
1 9 -2 395. -598. 1196. <
1 9 2 738. 1196. 897. <
-1 9 -2 893. 598. 897. <
3 9 2 2597. 598. 897. <
-3 9 -2 2811. 897. 897. <
5 9 2 202. 299. 897. <
-5 9 -2 149. 1494. 1196. <
7 9 2 844. 897. 897. <
-7 9 -2 865. 1196. 897. <
9 9 2 137. 598. 897. <
-9 9 -2 247. 2989. 1196. o
11 9 2 2373. 1494. 897. <
-11 9 -2 2262. 1793. 1196. <
13 9 2 943. -598. 897. <
-13 9 -2 973. 2092. 1196. <
15 9 2 274. 1494. 897. <
-15 9 -2 440. 1196. 1196. <
17 9 2 5515. 1494. 897. <
-17 9 -2 5676. 1793. 1196. <
19 9 2 30. 299. 897. <
-19 9 -2 9. -1196. 1793. <
21 9 2 491. 0. 598. <
-21 9 -2 422. -299. 1793. <
23 9 2 87. 0. 598. <
-23 9 -2 202. 1196. 1793. <
25 9 2 1237. 897. 897. <
-25 9 -2 1089. -2690. 1793. <
27 9 2 137. 598. 897. <
-27 9 -2 176. 299. 1793. <
-18 10 2 4484. 6575. 897. o
18 10 -2 4537. 4184. 1196. o
-16 10 2 42496. 42440. 897. o
16 10 -2 41378. 33175. 1196. o
-14 10 2 35977. 29589. 598. o
14 10 -2 35525. 25703. 1196. o
-12 10 2 10263. 6874. 897. o
12 10 -2 10355. 6575. 1196. o
-10 10 2 6291. 4483. 897. o
10 10 -2 6301. 5679. 1196. o
-8 10 2 120104. 91755. 897. o
8 10 -2 120197. 86076. 1196. o
-6 10 2 1941. 2690. 598. o
6 10 -2 1652. 1793. 1196. <
-4 10 2 9545. 9863. 897. o
4 10 -2 9525. 8667. 1196. o
-2 10 2 63456. 57982. 897. o
2 10 -2 64567. 55292. 1196. o
0 10 2 58025. 54993. 897. o
0 10 -2 55952. 51407. 1196. o
2 10 2 9925. 11058. 897. o
-2 10 -2 10109. 11058. 1196. o
4 10 2 2917. 4184. 897. o
-4 10 -2 3486. 3288. 1196. o
6 10 2 115143. 93548. 1196. o
-6 10 -2 114547. 97433. 1494. o
8 10 2 3976. 5380. 897. o
-8 10 -2 3557. 6874. 1196. o
10 10 2 7418. 5978. 897. o
-10 10 -2 7322. 7771. 1196. o
12 10 2 36240. 33474. 1196. o
-12 10 -2 37518. 37658. 1196. o
14 10 2 33779. 37658. 1196. o
-14 10 -2 32915. 39153. 1196. o
16 10 2 3487. 5679. 1196. o
-16 10 -2 3724. 5081. 1196. o
-51 1 3 6044. 1793. 598. o
51 1 -3 4343. 1793. 1196. <
-49 1 3 2515. 1793. 598. o
49 1 -3 2436. 1196. 1196. <
-47 1 3 3204. 1793. 598. o
47 1 -3 3310. 897. 1196. <
-45 1 3 43055. 40946. 897. o
45 1 -3 45300. 23312. 1494. o
-43 1 3 38378. 27198. 897. o
43 1 -3 38607. 14346. 1494. o
-41 1 3 3185. 2092. 598. o
41 1 -3 3183. 598. 1494. <
-39 1 3 1462. 299. 897. <
39 1 -3 1336. 897. 1196. <
-37 1 3 27374. 15542. 897. o
37 1 -3 18022. 16737. 1494. o
-35 1 3 17243. 14346. 897. o
35 1 -3 17832. 15243. 1494. o
-33 1 3 23177. 16139. 1196. o
33 1 -3 22988. 20324. 1494. o
-31 1 3 157938. 199649. 2391. o
31 1 -3 165002. 211006. 2690. o
-29 1 3 216638. 276759. 2690. o
29 1 -3 219051. 257033. 2690. o
-27 1 3 18483. 18530. 1196. o
27 1 -3 19185. 22416. 1494. o
-25 1 3 8024. 5978. 1196. o
25 1 -3 8575. 7472. 1494. o
-23 1 3 72556. 60074. 1494. o
23 1 -3 44963. 81892. 2092. o
-21 1 3 69361. 54993. 1494. o
21 1 -3 73110. 75914. 1793. o
-19 1 3 78017. 62166. 1793. o
19 1 -3 79211. 78006. 2092. o
-17 1 3 343824. 366122. 2989. o
17 1 -3 353156. 452198. 3288. o
-15 1 3 730781. 729555. 3885. o
15 1 -3 739862. 712818. 3586. o
-13 1 3 42231. 42440. 1793. o
13 1 -3 44535. 36164. 1494. o
-11 1 3 8348. 8070. 1196. o
11 1 -3 10124. 12553. 1494. o
-9 1 3 165141. 204730. 1793. o
9 1 -3 137452. 13449. 1196. o
-7 1 3 88876. 66350. 1196. o
7 1 -3 99350. -1494. 598. <
-5 1 3 75364. 50809. 1494. o
5 1 -3 77290. 47521. 1196. o
-3 1 3 278621. 359846. 2391. o
3 1 -3 264269. 207121. 1494. o
-1 1 3 1175070. 1074160. 3587. o
1 1 -3 1189380. 991668. 2989. o
1 1 3 40064. 40647. 897. o
-1 1 -3 42230. 35267. 1494. o
3 1 3 10063. 9564. 897. o
-3 1 -3 8949. 17036. 1196. o
5 1 3 162940. 188889. 1494. o
7 1 3 82462. 72627. 1196. o
9 1 3 49038. 45728. 1196. o
-9 1 -3 51155. 42141. 1196. o
11 1 3 132611. 141069. 1494. o
-11 1 -3 129836. 232824. 1793. o
13 1 3 795784. 823103. 2989. o
-13 1 -3 803456. 816826. 2690. o
15 1 3 6446. 10461. 1196. o
-15 1 -3 5563. 5978. 1494. o
17 1 3 6996. 6575. 1196. o
-17 1 -3 5380. 1196. 1494. <
19 1 3 65426. 98330. 1494. o
-19 1 -3 68891. 70834. 1196. o
21 1 3 23932. 18829. 1196. o
-21 1 -3 16239. 15840. 1196. o
23 1 3 10398. 7173. 897. o
-23 1 -3 13080. 8966. 897. o
25 1 3 29726. 53200. 1494. o
-25 1 -3 24910. 34968. 1196. o
27 1 3 279547. 334143. 2391. o
-27 1 -3 285085. 416931. 2391. o
29 1 3 121. 897. 897. <
-29 1 -3 314. 598. 1196. <
31 1 3 10687. 299. 897. <
-31 1 -3 9076. -299. 1196. <
33 1 3 19782. 14645. 897. o
-33 1 -3 23732. 30186. 1196. o
35 1 3 7200. 2690. 897. o
-35 1 -3 3359. 2989. 1196. o
37 1 3 4049. 299. 598. <
-37 1 -3 5533. 1793. 897. <
39 1 3 6078. 2092. 598. o
-39 1 -3 4066. 2989. 897. o
41 1 3 57724. 55292. 1196. o
-41 1 -3 58266. 96537. 1196. o
43 1 3 1357. -299. 598. <
-43 1 -3 1957. 1196. 897. <
45 1 3 4760. 299. 598. <
-45 1 -3 4099. -299. 598. <
47 1 3 3324. 3885. 598. o
-47 1 -3 5072. 7173. 598. o
49 1 3 1515. 897. 598. <
-49 1 -3 443. 1494. 598. o
-52 2 3 132. 598. 598. <
52 2 -3 123. 598. 1196. <
-50 2 3 43. 0. 598. <
50 2 -3 54. 299. 897. <
-48 2 3 1426. 1196. 598. <
48 2 -3 1416. 1196. 897. <
-46 2 3 247. 299. 897. <
46 2 -3 300. 598. 1196. <
-44 2 3 500. -598. 598. <
44 2 -3 515. 598. 1196. <
-42 2 3 1943. 1196. 897. <
42 2 -3 1853. 1196. 1196. <
-40 2 3 3348. 3288. 897. o
40 2 -3 3479. 2690. 1494. <
-38 2 3 621. 2092. 897. o
38 2 -3 562. 598. 1494. <
-36 2 3 254. 299. 1196. <
36 2 -3 233. 598. 1494. <
-34 2 3 7013. 5978. 1196. o
34 2 -3 6993. 8369. 1494. o
-32 2 3 1123. 598. 1196. <
32 2 -3 1251. 598. 1494. <
-30 2 3 1166. -299. 1196. <
30 2 -3 1154. -299. 1793. <
-28 2 3 4248. 3885. 1196. o
28 2 -3 4068. 5978. 1793. o
-26 2 3 22283. 26600. 1494. o
26 2 -3 22946. 32278. 2092. o
-24 2 3 1040. 897. 1494. <
24 2 -3 976. 1196. 1793. <
-22 2 3 1809. 1196. 1196. <
22 2 -3 1807. -2391. 1196. <
-20 2 3 14562. 14047. 1494. o
20 2 -3 14998. -2391. 1196. <
-18 2 3 3409. 1494. 1196. <
18 2 -3 3558. 1196. 1494. <
-16 2 3 5457. 4483. 1793. o
16 2 -3 5446. 6874. 1793. o
-14 2 3 1703. 2092. 1494. <
14 2 -3 1715. 3288. 1793. <
-12 2 3 63422. 100721. 2391. o
12 2 -3 62658. 91456. 2092. o
-10 2 3 611. 1793. 1494. <
10 2 -3 510. 2391. 1494. <
-8 2 3 3391. 2690. 2092. <
8 2 -3 3127. 2690. 1196. o
-6 2 3 13608. 16737. 2092. o
6 2 -3 13056. 12852. 897. o
-4 2 3 12780. 12254. 2092. o
4 2 -3 12627. 13748. 1196. o
-2 2 3 10263. 9863. 2092. o
2 2 -3 10552. 9564. 897. o
0 2 3 3784. 1494. 2391. <
0 2 -3 3808. 1793. 897. <
2 2 3 41340. 32278. 2092. o
-2 2 -3 41411. 35865. 1196. o
4 2 3 2046. 598. 1494. <
-4 2 -3 1942. 897. 1793. <
6 2 3 3040. 897. 897. <
-6 2 -3 2969. 299. 1793. <
8 2 3 11438. 14047. 897. o
-8 2 -3 11094. 12553. 1793. o
10 2 3 33593. 28991. 897. o
-10 2 -3 33624. 18530. 1793. o
12 2 3 5526. 6575. 897. o
-12 2 -3 5508. 4782. 1793. o
14 2 3 3883. 1196. 598. <
-14 2 -3 3926. 1196. 1793. <
16 2 3 10019. 12553. 897. o
-16 2 -3 10141. 14047. 1793. o
18 2 3 1576. 598. 897. <
-18 2 -3 1485. 1494. 897. <
20 2 3 2671. -598. 598. <
-20 2 -3 2725. 598. 897. <
22 2 3 2038. 2092. 598. o
-22 2 -3 1954. 4483. 897. o
24 2 3 19166. 20622. 897. o
-24 2 -3 19141. 28393. 897. o
26 2 3 912. 1196. 598. <
-26 2 -3 812. 2092. 897. o
28 2 3 2429. 897. 897. <
-28 2 -3 2455. 1494. 897. <
30 2 3 1916. 1494. 897. <
-30 2 -3 1924. 2690. 897. o
32 2 3 3397. 897. 598. <
-32 2 -3 3301. 598. 598. <
34 2 3 1048. 598. 598. <
-34 2 -3 1115. 598. 897. <
36 2 3 507. -299. 598. <
-36 2 -3 410. 299. 897. <
38 2 3 4651. 3288. 598. o
-38 2 -3 4768. 6575. 897. o
40 2 3 131. 897. 598. <
-40 2 -3 124. 1494. 897. <
42 2 3 1456. 299. 598. <
-42 2 -3 1441. 897. 598. <
44 2 3 594. -299. 598. <
-44 2 -3 642. 0. 598. <
46 2 3 1266. 897. 598. <
-46 2 -3 1205. 1196. 598. <
48 2 3 423. 598. 598. <
-48 2 -3 449. 299. 598. <
-51 3 3 7408. 2391. 1196. <
51 3 -3 6921. 2989. 897. o
-49 3 3 1109. 1793. 1196. <
49 3 -3 1314. 1494. 897. <
-47 3 3 1879. -1196. 1196. <
47 3 -3 2146. 897. 897. <
-45 3 3 28180. 16737. 1196. o
45 3 -3 29605. 5978. 1196. o
-43 3 3 28685. 26002. 1494. o
43 3 -3 31016. 7472. 1196. o
-41 3 3 2982. 1494. 1494. <
41 3 -3 3773. 1793. 1196. <
-39 3 3 2729. 1793. 1494. <
39 3 -3 3527. 1196. 1196. <
-37 3 3 32950. 32278. 1494. o
37 3 -3 31814. 21220. 1196. o
-35 3 3 7123. 9863. 1494. o
35 3 -3 7852. 6575. 1494. o
-33 3 3 8961. 9564. 1494. o
33 3 -3 8893. 8369. 1494. o
-31 3 3 91984. 144955. 1793. o
31 3 -3 97920. 106101. 2391. o
-29 3 3 128166. 143460. 1793. o
29 3 -3 136331. 151231. 2391. o
-27 3 3 10147. 11058. 1196. o
27 3 -3 12897. 14047. 1793. o
-25 3 3 5065. 9265. 1196. o
25 3 -3 6532. 5679. 1793. o
-23 3 3 72855. 81593. 1494. o
23 3 -3 70325. 95640. 2092. o
-21 3 3 28449. 28393. 1196. o
21 3 -3 27486. 27795. 1494. o
-19 3 3 30048. 29888. 1494. o
19 3 -3 28022. 28991. 1793. o
-17 3 3 155513. 168566. 1793. o
17 3 -3 163637. 191878. 2391. o
-15 3 3 312142. 360444. 2391. o
15 3 -3 318948. 358650. 2690. o
-13 3 3 23093. 28393. 1494. o
13 3 -3 27269. 31681. 1494. o
-11 3 3 5900. 7173. 1793. o
11 3 -3 6977. 7173. 1494. o
-9 3 3 87141. 101618. 1793. o
9 3 -3 91688. 95341. 1793. o
-7 3 3 41853. 37359. 1494. o
7 3 -3 36205. 30485. 1494. o
-5 3 3 56424. 47521. 1494. o
5 3 -3 48505. 36762. 1494. o
-3 3 3 139900. 173348. 1793. o
3 3 -3 130302. 104606. 1793. o
-1 3 3 353518. 409160. 2391. o
1 3 -3 370097. 253446. 2391. o
1 3 3 20160. 22117. 1494. o
-1 3 -3 22196. 12254. 1196. o
3 3 3 2811. 1494. 1196. <
-3 3 -3 2296. 1494. 1196. <
5 3 3 86332. 89364. 1793. o
-5 3 -3 90997. 58878. 1494. o
7 3 3 42637. 34670. 1494. o
-7 3 -3 40397. 25106. 1196. o
9 3 3 46554. 38854. 1196. o
-9 3 -3 41461. 32577. 2690. o
11 3 3 80226. 75317. 1196. o
-11 3 -3 76311. 66948. 2391. o
13 3 3 323843. 321590. 1494. o
-13 3 -3 332203. 358053. 3586. o
15 3 3 6733. 11656. 897. o
-15 3 -3 5601. 9863. 1793. o
17 3 3 1192. 2092. 598. o
-17 3 -3 516. 1494. 1494. <
19 3 3 53949. 57085. 897. o
-19 3 -3 56273. 51705. 1494. o
21 3 3 30515. 24209. 897. o
-21 3 -3 28795. 27496. 1494. o
23 3 3 15926. 15840. 598. o
-23 3 -3 15882. 17335. 1196. o
25 3 3 25247. 31083. 897. o
-25 3 -3 22697. 22416. 1196. o
27 3 3 151721. 159301. 1494. o
-27 3 -3 153695. 180820. 1793. o
29 3 3 209. 897. 598. <
-29 3 -3 69. 1196. 1196. <
31 3 3 2940. 598. 598. <
-31 3 -3 2453. 1494. 897. <
33 3 3 21626. 17634. 897. o
-33 3 -3 23436. 19427. 1196. o
35 3 3 10203. 8070. 598. o
-35 3 -3 8506. 10461. 897. o
37 3 3 3444. 2989. 598. o
-37 3 -3 4221. 2690. 897. o
39 3 3 4297. 2989. 598. o
-39 3 -3 3548. 1793. 897. <
41 3 3 36580. 37060. 897. o
-41 3 -3 36840. 52602. 1196. o
43 3 3 73. -897. 598. <
-43 3 -3 189. 598. 897. <
45 3 3 1534. 598. 598. <
-45 3 -3 1262. 1196. 897. <
47 3 3 3446. 2989. 598. o
-47 3 -3 4221. 5081. 897. o
-48 4 3 2971. 2092. 1196. <
48 4 -3 2987. 1196. 1196. <
-46 4 3 164. -299. 1196. <
46 4 -3 144. 0. 1196. <
-44 4 3 159. 1494. 1494. <
44 4 -3 183. 598. 1196. <
-42 4 3 2440. 897. 1494. <
42 4 -3 2323. 598. 1196. <
-40 4 3 1394. 3885. 1196. o
40 4 -3 1532. 2391. 1494. <
-38 4 3 1148. 1196. 1494. <
38 4 -3 1049. 897. 1494. <
-36 4 3 1887. 299. 1196. <
36 4 -3 1721. 1494. 1494. <
-34 4 3 18605. 19726. 1494. o
34 4 -3 18675. 23611. 1793. o
-32 4 3 1348. 598. 1196. <
32 4 -3 1108. 598. 1494. <
-30 4 3 47. 3288. 1494. o
30 4 -3 37. 1793. 1793. <
-28 4 3 2908. 2690. 1196. o
28 4 -3 2788. -299. 1494. <
-26 4 3 8763. 12852. 1196. o
26 4 -3 9131. 12852. 1494. o
-24 4 3 6279. 3885. 1196. o
24 4 -3 5798. 5380. 1494. o
-22 4 3 3695. 2391. 1196. <
22 4 -3 3370. 2690. 1196. o
-20 4 3 50752. 64856. 1494. o
20 4 -3 50792. 47521. 1494. o
-18 4 3 10825. 10760. 1196. o
18 4 -3 9927. 11058. 1196. o
-16 4 3 705. 1494. 1196. <
16 4 -3 653. 598. 1196. <
-14 4 3 922. 1196. 1196. <
14 4 -3 960. 598. 1494. <
-12 4 3 29989. 36762. 1196. o
12 4 -3 30601. 25106. 1494. o
-10 4 3 8740. 6575. 1196. o
10 4 -3 8314. 4184. 1494. o
-8 4 3 2048. 1196. 1196. <
8 4 -3 1899. 299. 1494. <
-6 4 3 30460. 25106. 1196. o
6 4 -3 30145. 18231. 1793. o
-4 4 3 22972. 23312. 1196. o
4 4 -3 22221. 15243. 1494. o
-2 4 3 1985. 2092. 1196. <
2 4 -3 2023. 598. 1196. <
0 4 3 3066. 5081. 1196. o
0 4 -3 3121. 2989. 1494. <
2 4 3 69039. 76811. 1196. o
-2 4 -3 69445. 53798. 1494. o
4 4 3 1202. 598. 897. <
-4 4 -3 1240. 598. 1494. <
6 4 3 456. 1793. 897. <
-6 4 -3 433. 1793. 1494. <
8 4 3 3305. 3586. 897. o
-8 4 -3 3193. 3885. 1196. o
10 4 3 12552. 11656. 1196. o
-10 4 -3 12516. 5679. 1793. o
12 4 3 849. 1494. 598. o
-12 4 -3 798. 1196. 1793. <
14 4 3 3075. 2391. 598. o
-14 4 -3 2950. 3288. 1494. o
16 4 3 48371. 52303. 897. o
-16 4 -3 48754. 37060. 1494. o
18 4 3 1926. 2391. 598. o
-18 4 -3 1839. 2092. 1196. <
20 4 3 1180. 897. 897. <
-20 4 -3 1172. 1494. 1196. <
22 4 3 349. 1494. 598. o
-22 4 -3 211. -897. 1196. <
24 4 3 10277. 7472. 598. o
-24 4 -3 10545. 8070. 1196. o
26 4 3 1714. 1494. 598. o
-26 4 -3 1553. 1196. 1196. <
28 4 3 2057. 1494. 598. o
-28 4 -3 2006. 897. 897. <
30 4 3 8608. 8070. 598. o
-30 4 -3 8818. 8966. 1196. o
32 4 3 2427. 2989. 598. o
-32 4 -3 2223. 3586. 897. o
34 4 3 899. 0. 598. <
-34 4 -3 965. 299. 897. <
36 4 3 575. 1196. 598. <
-36 4 -3 425. 1196. 897. <
38 4 3 4839. 4483. 598. o
-38 4 -3 5039. 3586. 897. o
40 4 3 605. 1196. 598. <
-40 4 -3 537. 1196. 897. <
42 4 3 1291. 0. 598. <
-42 4 -3 1289. 299. 897. <
44 4 3 916. 897. 598. <
-44 4 -3 1014. -299. 897. <
46 4 3 1340. 598. 598. <
-46 4 -3 1218. 1793. 897. <
-45 5 3 10638. 12852. 1793. o
45 5 -3 8912. 6276. 1793. o
-43 5 3 21805. 16438. 1494. o
43 5 -3 21418. 14346. 1793. o
-41 5 3 1492. 2690. 1494. <
41 5 -3 1810. 1494. 1793. <
-39 5 3 512. 0. 1494. <
39 5 -3 635. -598. 1494. <
-37 5 3 48809. 50510. 1494. o
37 5 -3 43114. 48119. 2092. o
-35 5 3 5552. 3586. 1196. o
35 5 -3 5790. 5380. 1494. o
-33 5 3 10207. 7173. 1196. o
33 5 -3 8657. 9863. 1494. o
-31 5 3 48988. 75317. 1793. o
31 5 -3 41338. 44234. 1793. o
-29 5 3 92871. 116262. 1793. o
29 5 -3 93961. 106698. 2092. o
-27 5 3 5859. 8966. 1494. o
27 5 -3 6375. 3885. 1494. o
-25 5 3 3386. 15840. 1494. o
-23 5 3 168855. 237008. 2092. o
-21 5 3 26842. 34371. 1494. o
21 5 -3 28439. 28094. 1494. o
-19 5 3 36142. 35566. 1494. o
19 5 -3 32718. 21220. 1196. o
-17 5 3 137339. 172451. 1793. o
17 5 -3 122355. 109388. 2092. o
-15 5 3 269456. 280345. 1793. o
15 5 -3 278762. 180521. 2391. o
-13 5 3 8088. 12254. 1196. o
13 5 -3 8418. 8667. 1793. o
-11 5 3 4857. 6575. 897. o
11 5 -3 4773. 2391. 1494. <
-9 5 3 359088. 414241. 2092. o
9 5 -3 359507. 316509. 2690. o
-7 5 3 96881. 104905. 1494. o
7 5 -3 98244. 77708. 2092. o
-5 5 3 63871. 62465. 1196. o
5 5 -3 58751. 51407. 1793. o
-3 5 3 172565. 179026. 1494. o
3 5 -3 158337. 153024. 2092. o
-1 5 3 402751. 453693. 1793. o
1 5 -3 412276. 421115. 2690. o
1 5 3 3047. 12553. 1196. o
-1 5 -3 4435. 7173. 1494. o
3 5 3 1661. 18231. 1196. o
-3 5 -3 2045. 5978. 1196. o
5 5 3 310539. 354765. 1793. o
-5 5 -3 316014. 309635. 2092. o
7 5 3 131042. 135092. 1196. o
-7 5 -3 126693. 108193. 1494. o
9 5 3 45656. 48418. 1196. o
-9 5 -3 44011. 36164. 1196. o
11 5 3 81759. 96537. 1494. o
-11 5 -3 80590. 88168. 1196. o
13 5 3 244326. 303657. 1793. o
-13 5 -3 242612. 157507. 2391. o
15 5 3 3387. 4483. 897. o
-15 5 -3 3757. 2391. 1494. <
17 5 3 296. 2989. 598. o
-17 5 -3 626. -299. 1196. <
19 5 3 97229. 105802. 1196. o
-19 5 -3 102148. 48119. 1793. o
21 5 3 59550. 66051. 897. o
-21 5 -3 56988. 33474. 1494. o
23 5 3 15064. 14047. 897. o
-23 5 -3 14393. 8070. 1196. o
25 5 3 21600. 26301. 897. o
-25 5 -3 21593. 15243. 1196. o
27 5 3 72653. 85478. 897. o
-27 5 -3 72588. 63063. 1494. o
29 5 3 760. 897. 897. <
-29 5 -3 640. 2092. 897. o
31 5 3 439. 897. 598. <
-31 5 -3 418. 897. 897. <
33 5 3 21393. 15840. 897. o
-33 5 -3 22182. 16438. 1196. o
35 5 3 15826. 13748. 598. o
-35 5 -3 15546. 14645. 897. o
37 5 3 2219. 2690. 598. o
-37 5 -3 2062. 3586. 897. o
39 5 3 3518. 3288. 598. o
-39 5 -3 3629. 1793. 897. <
41 5 3 16333. 18829. 897. o
-41 5 -3 16285. 18530. 1196. o
43 5 3 115. 598. 598. <
-43 5 -3 49. 1494. 897. <
-42 6 3 1055. 299. 1494. <
42 6 -3 921. 1494. 1793. <
-40 6 3 4203. 2989. 1494. <
40 6 -3 4610. 2989. 1793. <
-38 6 3 372. 1494. 1494. <
38 6 -3 280. 1793. 1494. <
-36 6 3 59. -897. 1494. <
36 6 -3 70. 1793. 1793. <
-34 6 3 979. 2092. 1196. <
34 6 -3 920. 1793. 1494. <
-32 6 3 400. 1494. 1196. <
32 6 -3 635. 1494. 1494. <
-30 6 3 258. 1793. 1196. <
30 6 -3 226. 897. 1196. <
-28 6 3 3047. 3885. 1196. o
28 6 -3 2849. 2092. 1196. <
-26 6 3 20284. 16139. 1196. o
26 6 -3 21312. 14645. 1196. o
-24 6 3 552. 598. 1196. <
24 6 -3 430. 0. 1196. <
-22 6 3 1819. 1196. 1196. <
22 6 -3 1835. 598. 1196. <
-20 6 3 1627. 598. 1196. <
20 6 -3 1621. 1494. 1494. <
-18 6 3 569. 897. 897. <
18 6 -3 805. 1494. 1793. <
-16 6 3 581. 0. 897. <
16 6 -3 585. 598. 1494. <
-14 6 3 1378. 1196. 897. <
14 6 -3 1303. 0. 1494. <
-12 6 3 34186. 27198. 897. o
12 6 -3 35475. 21818. 1494. o
-10 6 3 3887. 1196. 897. <
10 6 -3 3828. 897. 1494. <
-8 6 3 3008. 2989. 897. o
8 6 -3 3099. 2092. 1494. <
-6 6 3 8651. 5380. 897. o
6 6 -3 8345. 4782. 1494. o
-4 6 3 2793. 897. 1196. <
4 6 -3 2460. 1793. 1494. <
-2 6 3 2960. 3288. 897. o
2 6 -3 3027. 3288. 1494. o
0 6 3 328. 897. 897. <
0 6 -3 270. 1196. 1494. <
2 6 3 8734. 9265. 897. o
-2 6 -3 9059. 9863. 1494. o
4 6 3 767. 598. 598. <
-4 6 -3 694. 1196. 1196. <
6 6 3 3946. 4483. 897. o
-6 6 -3 4045. 2989. 1196. o
8 6 3 14599. 11357. 1196. o
-8 6 -3 13769. 11058. 1196. o
10 6 3 13818. 10162. 897. o
-10 6 -3 13789. 10461. 1196. o
12 6 3 3236. 2391. 897. o
-12 6 -3 3187. 2989. 1196. o
14 6 3 997. 1196. 897. <
-14 6 -3 854. 1196. 1494. <
16 6 3 976. 2092. 897. o
-16 6 -3 1106. 4184. 1494. o
18 6 3 1887. 598. 897. <
-18 6 -3 2030. 2391. 1494. <
20 6 3 1410. 1494. 897. <
-20 6 -3 1500. 598. 1196. <
22 6 3 5378. 5679. 897. o
-22 6 -3 4829. 1494. 1196. <
24 6 3 9526. 10760. 897. o
-24 6 -3 9832. 4483. 1196. o
26 6 3 1330. 897. 897. <
-26 6 -3 1284. 1196. 1196. <
28 6 3 1194. -299. 598. <
-28 6 -3 1126. -299. 897. <
30 6 3 624. 897. 598. <
-30 6 -3 784. 1196. 1196. <
32 6 3 1490. 897. 598. <
-32 6 -3 1469. -299. 1196. <
34 6 3 270. 598. 598. <
-34 6 -3 345. -598. 897. <
36 6 3 831. 897. 598. <
-36 6 -3 686. 299. 897. <
38 6 3 2342. 1196. 598. <
-38 6 -3 2451. 2391. 897. o
40 6 3 158. 0. 598. <
-40 6 -3 104. 1196. 897. <
-39 7 3 2468. 6575. 1494. o
39 7 -3 2998. 1494. 1494. <
-37 7 3 31278. 33474. 1494. o
37 7 -3 35192. 26899. 1494. o
-35 7 3 1559. 1196. 1196. <
35 7 -3 1429. 299. 1494. <
-33 7 3 1397. 598. 1196. <
33 7 -3 1386. 2989. 1196. o
-31 7 3 18849. 19726. 1494. o
31 7 -3 20408. 15840. 1494. o
-29 7 3 29829. 32577. 1494. o
29 7 -3 33363. 27795. 1494. o
-27 7 3 1772. 4184. 1196. o
27 7 -3 2769. 1196. 1196. <
-25 7 3 2008. 2690. 1196. o
25 7 -3 2865. 2989. 1196. o
-23 7 3 71935. 73822. 1494. o
23 7 -3 81097. 42440. 1494. o
-21 7 3 9903. 6276. 1196. o
21 7 -3 7738. 4782. 1196. o
-19 7 3 5569. 4483. 897. o
19 7 -3 4514. 3885. 1793. o
-17 7 3 26409. 29290. 897. o
17 7 -3 29758. 18530. 1793. o
-15 7 3 45266. 36463. 897. o
15 7 -3 45671. 28393. 1494. o
-13 7 3 2105. 2391. 598. o
13 7 -3 3496. 1196. 1494. <
-11 7 3 654. 897. 897. <
11 7 -3 921. 2092. 1494. <
-9 7 3 84887. 77409. 1196. o
9 7 -3 92657. 72029. 1494. o
-7 7 3 13656. 8966. 897. o
7 7 -3 10470. 8966. 1494. o
-5 7 3 11061. 9564. 897. o
5 7 -3 8864. 8966. 1196. o
-3 7 3 25319. 22416. 897. o
3 7 -3 25559. 23013. 1196. o
-1 7 3 36463. 36164. 897. o
1 7 -3 36788. 34072. 1196. o
1 7 3 2243. 4483. 897. o
-1 7 -3 2374. 2391. 1196. <
3 7 3 89. 1196. 897. <
-3 7 -3 32. 598. 1196. <
5 7 3 71405. 66649. 1196. o
-5 7 -3 74592. 72029. 1494. o
7 7 3 16537. 16737. 897. o
-7 7 -3 17776. 15542. 1196. o
9 7 3 15509. 14944. 1196. o
-9 7 -3 12874. 14346. 1196. o
11 7 3 21850. 20622. 897. o
-11 7 -3 20163. 21519. 1196. o
13 7 3 39577. 39452. 1196. o
-13 7 -3 41142. 40348. 1196. o
15 7 3 1014. 2989. 897. o
-15 7 -3 720. 3288. 1793. <
17 7 3 402. 1494. 897. <
-17 7 -3 672. 897. 1793. <
19 7 3 47944. 52303. 897. o
-19 7 -3 48301. 22416. 1494. o
21 7 3 21946. 20622. 897. o
-21 7 -3 22979. 10461. 1494. o
23 7 3 8941. 9863. 897. o
-23 7 -3 7687. 2690. 1494. <
25 7 3 8922. 8369. 897. o
-25 7 -3 8333. 3586. 1196. o
27 7 3 27375. 28393. 897. o
-27 7 -3 27894. 11357. 1196. o
29 7 3 496. 1494. 598. o
-29 7 -3 367. -299. 897. <
31 7 3 402. -299. 897. <
-31 7 -3 629. 0. 1196. <
33 7 3 16665. 8369. 897. o
-33 7 -3 16730. 8667. 1196. o
35 7 3 10996. 5081. 897. o
-35 7 -3 11085. 7472. 1196. o
-34 8 3 1699. 897. 1196. <
34 8 -3 1769. 299. 1196. <
-32 8 3 2104. 1196. 1494. <
32 8 -3 1758. -1494. 1494. <
-30 8 3 699. -3288. 1494. <
30 8 -3 615. 299. 1196. <
-28 8 3 792. -299. 1494. <
28 8 -3 862. 299. 1196. <
-26 8 3 475. 1793. 1494. <
26 8 -3 370. 897. 1196. <
-24 8 3 2030. 299. 1494. <
24 8 -3 1844. 0. 1196. <
-22 8 3 801. -897. 1494. <
22 8 -3 692. 598. 1196. <
-20 8 3 4606. 3885. 1196. o
20 8 -3 4616. 1793. 1494. <
-18 8 3 4314. 2690. 897. o
18 8 -3 3604. 1196. 1494. <
-16 8 3 2364. 0. 897. <
16 8 -3 2223. 897. 1494. <
-14 8 3 521. 0. 598. <
14 8 -3 628. 598. 1494. <
-12 8 3 661. 299. 598. <
12 8 -3 659. 598. 1494. <
-10 8 3 1370. 1494. 598. o
10 8 -3 1119. 1494. 1494. <
-8 8 3 139. 0. 598. <
8 8 -3 199. 1793. 1494. <
-6 8 3 2400. 2391. 598. o
6 8 -3 2276. 1793. 1494. <
-4 8 3 1194. 897. 598. <
4 8 -3 950. 598. 1196. <
-2 8 3 3442. 4782. 897. o
2 8 -3 3432. 4483. 1196. o
0 8 3 789. 598. 897. <
0 8 -3 903. 897. 1196. <
2 8 3 4159. 2690. 897. o
-2 8 -3 4464. 2690. 1196. o
4 8 3 685. 0. 897. <
-4 8 -3 770. 598. 1196. <
6 8 3 847. 598. 897. <
-6 8 -3 889. 299. 1196. <
8 8 3 182. 299. 897. <
-8 8 -3 120. -598. 1196. <
10 8 3 500. 897. 897. <
-10 8 -3 498. 2391. 1196. <
12 8 3 351. 1494. 897. <
-12 8 -3 419. 598. 1196. <
14 8 3 389. 0. 897. <
-14 8 -3 305. -598. 1196. <
16 8 3 5198. 4184. 897. o
-16 8 -3 5552. 3885. 1793. o
18 8 3 35. 1196. 897. <
-18 8 -3 31. 299. 1793. <
20 8 3 502. 0. 897. <
-20 8 -3 447. 897. 1793. <
22 8 3 146. 897. 897. <
-22 8 -3 47. 1196. 1494. <
24 8 3 161. 598. 897. <
-24 8 -3 189. -1196. 1196. <
26 8 3 135. 1196. 897. <
-26 8 -3 78. 0. 1196. <
28 8 3 185. 0. 897. <
-28 8 -3 97. 1196. 1196. <
30 8 3 765. 598. 897. <
-30 8 -3 922. -897. 1196. <
-27 9 3 2780. 2391. 1494. <
27 9 -3 2339. 1793. 897. <
-25 9 3 2180. 4782. 1494. o
25 9 -3 1814. 598. 897. <
-23 9 3 64621. 47222. 1494. o
23 9 -3 61962. 30186. 1196. o
-21 9 3 8474. 7472. 1196. o
21 9 -3 8979. 2690. 1494. <
-19 9 3 8716. 7472. 897. o
19 9 -3 8665. 5380. 1196. o
-17 9 3 30705. 22117. 897. o
17 9 -3 26632. 12852. 1196. o
-15 9 3 63885. 55292. 897. o
15 9 -3 64008. 41544. 1494. o
-13 9 3 3518. 2690. 598. o
13 9 -3 2944. 2690. 1196. o
-11 9 3 2213. 3288. 897. o
11 9 -3 2005. 2690. 1494. <
-9 9 3 125467. 86973. 1196. o
9 9 -3 124410. 79202. 1793. o
-7 9 3 25864. 22117. 897. o
7 9 -3 26808. 21519. 1494. o
-5 9 3 13184. 11058. 897. o
5 9 -3 13608. 9863. 1494. o
-3 9 3 33055. 35267. 897. o
3 9 -3 31128. 21519. 1494. o
-1 9 3 98143. 90260. 897. o
1 9 -3 98142. 91157. 1793. o
1 9 3 463. 2989. 897. o
-1 9 -3 600. 1494. 1494. <
3 9 3 909. 2391. 897. o
-3 9 -3 875. 2690. 1196. o
5 9 3 109226. 94744. 1196. o
-5 9 -3 109813. 78903. 1494. o
7 9 3 34032. 26002. 897. o
-7 9 -3 33090. 24807. 1196. o
9 9 3 10098. 6874. 897. o
-9 9 -3 10594. 8667. 1196. o
11 9 3 17619. 11058. 1196. o
-11 9 -3 18080. 15243. 1196. o
13 9 3 57750. 60074. 1196. o
-13 9 -3 56926. 55292. 1494. o
15 9 3 951. 2690. 1196. o
-15 9 -3 1175. 2690. 1196. o
17 9 3 945. 598. 897. <
-17 9 -3 902. -598. 2092. <
19 9 3 42631. 35566. 897. o
-19 9 -3 43192. 21220. 2092. o
21 9 3 16298. 13748. 897. o
-21 9 -3 15759. 7173. 1793. o
23 9 3 3715. 1793. 897. <
-23 9 -3 3611. 3586. 1793. <
-16 10 3 17. -598. 598. <
16 10 -3 25. 299. 1196. <
-14 10 3 24. 598. 598. <
14 10 -3 12. 598. 1196. <
-12 10 3 1175. 1196. 598. <
12 10 -3 1407. -299. 1196. <
-10 10 3 804. 598. 598. <
10 10 -3 855. 598. 1196. <
-8 10 3 178. -598. 598. <
8 10 -3 209. -299. 1196. <
-6 10 3 473. 299. 598. <
6 10 -3 402. 1196. 1196. <
-4 10 3 771. 1793. 897. <
4 10 -3 767. 299. 1494. <
-2 10 3 405. 299. 897. <
2 10 -3 427. 2690. 1494. <
0 10 3 79. 598. 897. <
0 10 -3 46. 299. 1196. <
2 10 3 47. 897. 897. <
-2 10 -3 26. 897. 1196. <
4 10 3 226. 897. 897. <
-4 10 -3 185. 598. 1196. <
6 10 3 558. 0. 897. <
-6 10 -3 611. 1793. 1494. <
8 10 3 1211. 1793. 897. <
-8 10 -3 993. 1196. 1494. <
10 10 3 402. 299. 897. <
-10 10 -3 388. -1494. 1494. <
12 10 3 587. 1494. 897. <
-12 10 -3 608. 598. 1494. <
-50 0 4 6491. 5380. 897. o
50 0 -4 6238. 2690. 2092. <
-48 0 4 2500. 2092. 897. o
48 0 -4 2437. -897. 2391. <
-46 0 4 11146. 8667. 897. o
46 0 -4 11794. 6575. 2092. o
-44 0 4 57553. 55292. 1494. o
44 0 -4 56294. 57085. 2690. o
-42 0 4 110. -598. 897. <
42 0 -4 193. 598. 2092. <
-40 0 4 831. 0. 1196. <
40 0 -4 805. 897. 2092. <
-38 0 4 26020. 7173. 1196. o
38 0 -4 13148. 15542. 2391. o
-36 0 4 38846. 26002. 1494. o
36 0 -4 39306. 66948. 2690. o
-34 0 4 12449. 7472. 1494. o
34 0 -4 11737. 15542. 2391. o
-32 0 4 36951. 27795. 2092. o
32 0 -4 34824. 44532. 2391. o
-30 0 4 361091. 549034. 3885. o
30 0 -4 365384. 701162. 4782. o
-28 0 4 490. 3288. 1793. <
28 0 -4 625. 2092. 2092. <
-26 0 4 3542. 7771. 1793. o
26 0 -4 4039. 6575. 2092. o
-24 0 4 141763. 171554. 2391. o
24 0 -4 118466. 177233. 2989. o
-22 0 4 168610. 236410. 2690. o
22 0 -4 173534. 231031. 2690. o
-20 0 4 47487. 46326. 1793. o
20 0 -4 44940. 42739. 1793. o
-18 0 4 108641. 94146. 2092. o
18 0 -4 102836. 84881. 2092. o
-14 0 4 2469. 11656. 2092. o
14 0 -4 1601. 7771. 1494. o
-12 0 4 19135. 31083. 2092. o
12 0 -4 22466. 23910. 1494. o
-10 0 4 654693. 770202. 4184. o
10 0 -4 625301. 615982. 3586. o
-8 0 4 556539. 678746. 3587. o
-6 0 4 121756. 120148. 1196. o
-4 0 4 114994. 112676. 1196. o
0 0 4 22976. 28692. 1196. o
2 0 4 74473. 96836. 1793. o
4 0 4 653160. 865244. 3587. o
-4 0 -4 641846. 750775. 2989. o
6 0 4 397320. 532596. 2989. o
-6 0 -4 365443. 459670. 2391. o
8 0 4 61592. 66948. 1494. o
-8 0 -4 61463. 61269. 1196. o
10 0 4 21950. 22416. 1494. o
-10 0 -4 17636. 17335. 1196. o
12 0 4 1380430. 2182390. 5380. o
-12 0 -4 1415910. 2141140. 4782. o
14 0 4 18362. 19726. 1196. o
-14 0 -4 15865. 25404. 1196. o
16 0 4 43326. 41544. 1494. o
-16 0 -4 39074. 38555. 1196. o
18 0 4 186182. 236410. 2092. o
-18 0 -4 198443. 226548. 2092. o
20 0 4 67177. 83685. 1793. o
-20 0 -4 65024. 89663. 1793. o
22 0 4 17567. 12852. 1196. o
-22 0 -4 18608. 11955. 1196. o
24 0 4 5523. 2989. 1196. o
-24 0 -4 3868. 1793. 1196. <
26 0 4 259028. 304554. 2690. o
-26 0 -4 274905. 345799. 2690. o
28 0 4 7219. 4782. 1196. o
-28 0 -4 9900. 5978. 1494. o
30 0 4 11779. 5978. 1196. o
-30 0 -4 9852. 6575. 1494. o
32 0 4 32995. 26899. 1494. o
-32 0 -4 39666. 38555. 1793. o
34 0 4 4537. 3885. 1196. o
-34 0 -4 4904. 7771. 1494. o
36 0 4 5854. 598. 1196. <
-36 0 -4 6558. 2092. 1494. <
38 0 4 1227. 598. 1196. <
-38 0 -4 585. 299. 1196. <
40 0 4 41970. 41544. 1494. o
-40 0 -4 43716. 76811. 1793. o
42 0 4 4158. 2690. 1196. o
-42 0 -4 5561. 5380. 1196. o
44 0 4 3509. 2092. 1196. <
-44 0 -4 2636. 2989. 1196. o
46 0 4 5304. 5081. 1196. o
-46 0 -4 7362. 6575. 1196. o
-51 1 4 44. 299. 598. <
51 1 -4 47. 299. 1196. <
-49 1 4 479. 598. 598. <
49 1 -4 475. 598. 1494. <
-47 1 4 648. -299. 598. <
47 1 -4 686. 1196. 1494. <
-45 1 4 134. 299. 598. <
45 1 -4 128. 1196. 1494. <
-43 1 4 197. 299. 897. <
43 1 -4 196. 598. 1793. <
-41 1 4 7583. 5380. 897. o
41 1 -4 7627. 7472. 1494. o
-39 1 4 113. 598. 897. <
39 1 -4 125. 1494. 1494. <
-37 1 4 467. -299. 897. <
37 1 -4 479. -299. 1494. <
-35 1 4 3609. 2391. 897. o
35 1 -4 3574. 3288. 1494. o
-33 1 4 7743. 6276. 1196. o
33 1 -4 7970. 8667. 1494. o
-31 1 4 1388. 897. 897. <
31 1 -4 1378. 598. 1494. <
-29 1 4 765. 598. 1196. <
29 1 -4 746. 598. 1494. <
-27 1 4 83388. 76213. 1494. o
27 1 -4 83254. 109986. 1793. o
-25 1 4 607. 1196. 1494. <
25 1 -4 687. 1793. 1196. <
-23 1 4 5020. 4782. 1196. o
23 1 -4 5203. 4782. 1196. o
-21 1 4 27749. 27795. 1494. o
21 1 -4 28053. 24807. 1196. o
-19 1 4 36023. 44532. 1494. o
19 1 -4 35788. 39153. 1196. o
-17 1 4 5236. 8369. 1196. o
17 1 -4 4944. 6874. 1196. o
-15 1 4 550. 897. 1196. <
15 1 -4 622. 598. 1196. <
-13 1 4 143567. 159599. 1494. o
13 1 -4 144880. 134494. 1793. o
-11 1 4 10257. 3288. 897. o
11 1 -4 10010. 5081. 1494. o
-9 1 4 12627. 10760. 897. o
9 1 -4 12403. 12254. 1196. o
-7 1 4 4435. 3885. 897. o
7 1 -4 4345. -1793. 598. <
-5 1 4 3105. 7173. 897. o
5 1 -4 3105. 3586. 1196. o
-3 1 4 2929. 8369. 1196. o
-1 1 4 2486. 3885. 897. o
1 1 -4 2455. 5380. 1196. o
1 1 4 9406. 19427. 897. o
-1 1 -4 9360. 12852. 1196. o
3 1 4 6048. 5380. 897. o
-3 1 -4 6004. 5380. 1196. o
5 1 4 196. 3586. 897. o
-5 1 -4 193. 2690. 1196. o
7 1 4 12710. 11955. 897. o
-7 1 -4 12593. 11357. 1196. o
9 1 4 101368. 121343. 1196. o
-9 1 -4 101276. 112078. 1793. o
11 1 4 240. 598. 897. <
-11 1 -4 254. -299. 598. <
13 1 4 861. 2391. 897. o
-13 1 -4 901. 2391. 598. o
15 1 4 40727. 44831. 1196. o
-15 1 -4 40479. 44234. 897. o
17 1 4 16000. 12553. 897. o
-17 1 -4 16035. 15542. 598. o
19 1 4 2160. 1196. 897. <
-19 1 -4 2136. 1793. 598. o
21 1 4 6493. 5978. 897. o
-21 1 -4 6267. 4483. 897. o
23 1 4 50739. 52901. 1196. o
-23 1 -4 50851. 57384. 1196. o
25 1 4 109. 0. 897. <
-25 1 -4 113. 598. 897. <
27 1 4 1260. 1196. 897. <
-27 1 -4 1263. 897. 897. <
29 1 4 7439. 8369. 897. o
-29 1 -4 7264. 8369. 1196. o
31 1 4 953. 598. 897. <
-31 1 -4 996. 897. 897. <
33 1 4 578. 1494. 897. <
-33 1 -4 586. -598. 1196. <
35 1 4 1466. 598. 598. <
-35 1 -4 1415. 299. 897. <
37 1 4 5600. 3586. 598. o
-37 1 -4 5615. 6575. 897. o
39 1 4 342. -299. 897. <
-39 1 -4 342. 598. 897. <
41 1 4 199. 1793. 598. o
-41 1 -4 202. -299. 897. <
43 1 4 445. 598. 598. <
-43 1 -4 437. 1494. 598. o
45 1 4 96. 598. 598. <
-45 1 -4 91. 897. 598. <
47 1 4 146. 299. 598. <
-47 1 -4 151. 598. 598. <
-50 2 4 3676. 2092. 598. o
50 2 -4 4304. 1793. 1494. <
-48 2 4 2595. 897. 897. <
48 2 -4 2808. 598. 1494. <
-46 2 4 17212. 10461. 897. o
46 2 -4 18881. 8369. 1494. o
-44 2 4 49678. 43337. 1196. o
44 2 -4 53646. 44831. 1793. o
-42 2 4 1764. 1793. 1196. <
42 2 -4 2134. 3288. 1494. o
-40 2 4 630. 1196. 1196. <
40 2 -4 1257. 2092. 1494. <
-38 2 4 25938. 20324. 1196. o
38 2 -4 25876. 28094. 1793. o
-36 2 4 12828. 12254. 1196. o
36 2 -4 14966. 17335. 1793. o
-34 2 4 9253. 7771. 1494. o
34 2 -4 8863. 10162. 1793. o
-32 2 4 40869. 32577. 1793. o
32 2 -4 45051. 38854. 1793. o
-30 2 4 170684. 202637. 2690. o
30 2 -4 182578. 288116. 2989. o
-28 2 4 6642. 6276. 1196. o
28 2 -4 7252. 6874. 1793. o
-26 2 4 922. 897. 1196. <
26 2 -4 1141. 2690. 1793. <
-24 2 4 21376. 20324. 1196. o
24 2 -4 19188. 23013. 1793. o
-22 2 4 10176. 14645. 1196. o
22 2 -4 7448. 18231. 1793. o
-20 2 4 11984. 6575. 1494. o
20 2 -4 6932. 9265. 1494. o
-18 2 4 11560. 11058. 1793. o
18 2 -4 13546. 3288. 1196. o
-16 2 4 149417. 273770. 2690. o
16 2 -4 169863. -1196. 897. <
-14 2 4 8548. 3885. 1793. o
14 2 -4 7788. 5679. 1494. o
-12 2 4 5975. 3885. 1494. o
12 2 -4 5080. 5679. 1196. o
-10 2 4 26319. 30784. 1494. o
10 2 -4 20814. 32577. 1494. o
-8 2 4 11026. 9564. 2391. o
8 2 -4 7814. 8966. 1196. o
-6 2 4 10024. 3288. 1793. <
6 2 -4 3915. 3586. 897. o
-4 2 4 254. 2989. 1793. <
4 2 -4 1784. 2989. 598. o
-2 2 4 70936. 83386. 2092. o
2 2 -4 108391. 90260. 1196. o
0 2 4 1423. 1494. 1494. <
0 2 -4 2250. 598. 897. <
2 2 4 7218. 3586. 1793. <
-2 2 -4 5602. 3885. 1196. o
4 2 4 16602. 20921. 897. o
-4 2 -4 16531. 20921. 1494. o
6 2 4 9453. 12553. 897. o
-6 2 -4 6236. 10760. 1494. o
8 2 4 8678. 6874. 897. o
-8 2 -4 5591. 5978. 1196. o
10 2 4 5214. 5081. 897. o
-10 2 -4 2500. 3288. 1196. o
12 2 4 138212. 170060. 1196. o
-12 2 -4 145679. 147644. 1793. o
14 2 4 6322. 7771. 598. o
-14 2 -4 7790. 6874. 1196. o
16 2 4 5139. 1494. 598. o
-16 2 -4 2341. 1793. 1494. <
18 2 4 10537. 8070. 897. o
-18 2 -4 7874. 4782. 1494. o
20 2 4 34517. 18530. 897. o
-20 2 -4 19145. 14944. 1494. o
22 2 4 173. 1494. 598. o
-22 2 -4 1281. 897. 897. <
24 2 4 981. 598. 897. <
-24 2 -4 847. 1196. 897. <
26 2 4 129672. 173647. 1494. o
-26 2 -4 119735. 210408. 1793. o
28 2 4 13651. 19427. 897. o
-28 2 -4 14786. 25106. 1196. o
30 2 4 8243. 5380. 897. o
-30 2 -4 6533. 3885. 897. o
32 2 4 8375. 10162. 897. o
-32 2 -4 8423. 12254. 897. o
34 2 4 22696. 18231. 897. o
-34 2 -4 16306. 21220. 897. o
36 2 4 2166. 1196. 897. <
-36 2 -4 2919. 299. 897. <
38 2 4 78. 299. 598. <
-38 2 -4 129. 598. 897. <
40 2 4 39590. 42141. 1196. o
-40 2 -4 36506. 55591. 1196. o
42 2 4 6449. 6575. 598. o
-42 2 -4 7456. 10461. 897. o
44 2 4 3321. 1793. 897. <
-44 2 -4 2622. 598. 897. <
46 2 4 2183. 2092. 598. o
-46 2 -4 2828. 5380. 598. o
-49 3 4 2069. 1196. 1196. <
49 3 -4 2134. 1196. 1793. <
-47 3 4 680. 1494. 1494. <
47 3 -4 577. 897. 1793. <
-45 3 4 293. 1196. 1196. <
45 3 -4 320. 2092. 1793. <
-43 3 4 1182. -299. 1196. <
43 3 -4 1123. 299. 1793. <
-41 3 4 299. 2690. 1196. o
41 3 -4 356. 1196. 1793. <
-39 3 4 2369. 1793. 1494. <
39 3 -4 2173. -897. 1793. <
-37 3 4 3180. 897. 1494. <
37 3 -4 3053. 3586. 1494. o
-35 3 4 19612. 22714. 1196. o
35 3 -4 19899. 11058. 1494. o
-33 3 4 15531. 17036. 1196. o
33 3 -4 14792. -2391. 1196. <
-31 3 4 3737. 3586. 1196. o
31 3 -4 3891. -2690. 1196. <
-29 3 4 3190. 4483. 1196. o
29 3 -4 3306. 7472. 1494. o
-27 3 4 3607. 2690. 1196. o
27 3 -4 3606. 5679. 1494. o
-25 3 4 5726. 5081. 1196. o
25 3 -4 5212. 5978. 1494. o
-23 3 4 11291. 9863. 1196. o
23 3 -4 10938. 11058. 1494. o
-21 3 4 68947. 80995. 1494. o
21 3 -4 68890. 89065. 1793. o
-19 3 4 88086. 107296. 1793. o
19 3 -4 87193. 121642. 2092. o
-17 3 4 17615. 17036. 1494. o
17 3 -4 18282. 19726. 1494. o
-15 3 4 4824. 4184. 1196. o
15 3 -4 5181. 4782. 1494. o
-13 3 4 9362. 11058. 1494. o
13 3 -4 9177. 9564. 1494. o
-11 3 4 1652. 4184. 1196. o
11 3 -4 1555. 2690. 1196. o
-9 3 4 9651. 9265. 1196. o
9 3 -4 9638. 8369. 897. o
-7 3 4 23922. 19128. 1196. o
7 3 -4 24158. 16438. 897. o
-5 3 4 48676. 59775. 1494. o
5 3 -4 48096. 43935. 1196. o
-3 3 4 16152. 10461. 1494. o
3 3 -4 16362. 8369. 897. o
-1 3 4 7267. 2989. 1196. o
1 3 -4 7529. 2989. 897. o
1 3 4 44326. 57085. 1793. o
-1 3 -4 45211. 48119. 1196. o
3 3 4 20742. 16737. 1494. o
-3 3 -4 20907. 14346. 897. o
5 3 4 3158. 2391. 2092. <
-5 3 -4 3118. 1196. 1494. <
7 3 4 7041. 8070. 1196. o
-7 3 -4 7383. 3586. 1793. <
9 3 4 16129. 3885. 1196. o
-9 3 -4 16203. 3288. 1494. o
11 3 4 3146. 2989. 897. o
-11 3 -4 3109. 3288. 1494. o
13 3 4 6975. 4483. 598. o
-13 3 -4 6918. 1494. 1494. <
15 3 4 67576. 73225. 897. o
-15 3 -4 68668. 52602. 1793. o
17 3 4 40164. 41245. 897. o
-17 3 -4 39715. 32577. 1793. o
19 3 4 7879. 5679. 598. o
-19 3 -4 7932. 5978. 1793. o
21 3 4 3065. 5679. 598. o
-21 3 -4 3377. 5679. 1793. o
23 3 4 7449. 2989. 598. o
-23 3 -4 7692. 4483. 1494. o
25 3 4 275. 1196. 598. <
-25 3 -4 237. -598. 1494. <
27 3 4 2991. 1196. 598. <
-27 3 -4 2889. 1793. 1196. <
29 3 4 13429. 10461. 598. o
-29 3 -4 13994. 11058. 1196. o
31 3 4 11421. 11955. 598. o
-31 3 -4 11042. 13449. 1196. o
33 3 4 1587. 1196. 598. <
-33 3 -4 1647. 1196. 1196. <
35 3 4 410. 1494. 897. <
-35 3 -4 452. 598. 1196. <
37 3 4 149. 1793. 598. o
-37 3 -4 164. 598. 1196. <
39 3 4 356. -598. 598. <
-39 3 -4 403. 299. 897. <
41 3 4 1465. 897. 598. <
-41 3 -4 1435. 1494. 897. <
43 3 4 1370. 1196. 598. <
-43 3 -4 1512. 598. 897. <
45 3 4 2296. 2092. 598. o
-45 3 -4 2160. 1494. 897. <
-46 4 4 5576. 2690. 1494. <
46 4 -4 4321. 3586. 1494. o
-44 4 4 31598. 44532. 1494. o
44 4 -4 30856. 31382. 1793. o
-42 4 4 119. 1494. 1494. <
42 4 -4 65. 1494. 1793. <
-40 4 4 1518. 1494. 1196. <
40 4 -4 1155. 897. 1494. <
-38 4 4 32147. 36463. 1494. o
38 4 -4 26582. 34968. 1793. o
-36 4 4 24973. 39153. 1494. o
36 4 -4 24033. 37359. 1793. o
-34 4 4 9623. 7173. 1196. o
34 4 -4 7855. 8070. 1494. o
-32 4 4 24452. 15243. 1494. o
32 4 -4 19396. 15243. 1494. o
-30 4 4 165390. 263907. 2092. o
30 4 -4 165960. 271379. 2391. o
-28 4 4 974. 2989. 1196. o
28 4 -4 680. 1196. 1793. <
-26 4 4 11335. 11656. 1196. o
26 4 -4 11526. 10760. 1494. o
-24 4 4 156291. 254343. 2391. o
24 4 -4 150941. 224754. 2391. o
-22 4 4 129104. 214891. 2092. o
22 4 -4 127861. 205028. 2092. o
-20 4 4 45797. 56786. 1494. o
20 4 -4 41763. 50211. 1494. o
-18 4 4 75103. 78006. 1494. o
18 4 -4 68465. 74121. 1793. o
-16 4 4 701732. 1223000. 3885. o
16 4 -4 711185. 1219410. 3885. o
-14 4 4 3613. 10461. 1196. o
14 4 -4 3236. 10461. 1494. o
-12 4 4 33273. 42141. 1494. o
12 4 -4 36215. 41544. 1196. o
-10 4 4 518179. 676654. 2989. o
10 4 -4 512102. 592072. 2690. o
-8 4 4 429631. 536182. 2391. o
8 4 -4 422578. 478798. 2391. o
-6 4 4 103645. 118952. 1494. o
6 4 -4 101974. 96238. 1494. o
-4 4 4 76915. 86375. 1494. o
4 4 -4 76445. 66649. 1196. o
-2 4 4 1268020. 1833300. 3885. o
2 4 -4 1263280. 1408000. 3288. o
0 4 4 13290. 28094. 1196. o
0 4 -4 11864. 18829. 1196. o
2 4 4 45091. 67247. 1196. o
-2 4 -4 47590. 45728. 1196. o
4 4 4 441041. 573542. 2690. o
-4 4 -4 442416. 390331. 1793. o
6 4 4 387767. 525423. 2391. o
-6 4 -4 375401. 334143. 1793. o
8 4 4 65085. 71431. 1196. o
-8 4 -4 65316. 28692. 2092. o
10 4 4 23614. 27795. 897. o
-10 4 -4 23920. 16737. 1793. o
12 4 4 586453. 845518. 2092. o
-12 4 -4 590932. 613292. 3885. o
14 4 4 8802. 15243. 897. o
-14 4 -4 7748. 5978. 1793. o
16 4 4 18046. 22416. 897. o
-16 4 -4 19010. 20324. 2092. o
18 4 4 129155. 150334. 1196. o
-18 4 -4 136891. 165577. 2391. o
20 4 4 92952. 121941. 1196. o
-20 4 -4 95149. 118952. 2391. o
22 4 4 12055. 12852. 897. o
-22 4 -4 12474. 12553. 1494. o
24 4 4 5360. 3288. 598. o
-24 4 -4 5650. 1793. 1196. <
26 4 4 127258. 179325. 1196. o
-26 4 -4 133733. 170060. 1793. o
28 4 4 671. 3586. 598. o
-28 4 -4 1036. 1793. 1196. <
30 4 4 2378. 2989. 598. o
-30 4 -4 2461. 2690. 1196. o
32 4 4 20096. 21818. 598. o
-32 4 -4 22882. 21220. 1196. o
34 4 4 14613. 17932. 598. o
-34 4 -4 16493. 18829. 1196. o
36 4 4 1893. 1793. 598. o
-36 4 -4 2077. 897. 897. <
38 4 4 1222. -598. 598. <
-38 4 -4 1125. 299. 897. <
40 4 4 20573. 28991. 897. o
-40 4 -4 22119. 31980. 1196. o
42 4 4 577. 1196. 897. <
-42 4 -4 681. 598. 897. <
-45 5 4 182. 0. 1494. <
45 5 -4 148. 1494. 1494. <
-43 5 4 315. -1793. 1494. <
43 5 -4 317. 897. 1494. <
-41 5 4 9997. 9863. 1494. o
41 5 -4 10271. 11058. 1793. o
-39 5 4 174. 897. 1494. <
39 5 -4 147. -598. 1494. <
-37 5 4 220. 897. 1494. <
37 5 -4 273. -598. 1494. <
-35 5 4 854. 1196. 1196. <
35 5 -4 785. 0. 1494. <
-33 5 4 1916. 1793. 1196. <
33 5 -4 2269. 897. 1196. <
-31 5 4 1287. 598. 1196. <
31 5 -4 1143. 299. 1196. <
-29 5 4 1104. 1196. 1196. <
29 5 -4 1096. 897. 1494. <
-27 5 4 62922. 76811. 1494. o
27 5 -4 63898. 71730. 1793. o
-25 5 4 1388. 2391. 1494. <
25 5 -4 1459. 2690. 1494. <
-23 5 4 1575. 1494. 1494. <
23 5 -4 1659. 2391. 1494. <
-21 5 4 5695. 5679. 1494. o
21 5 -4 5473. 6575. 1196. o
-19 5 4 7319. 8667. 1494. o
19 5 -4 7760. 8667. 1196. o
-17 5 4 1178. 598. 1196. <
17 5 -4 1068. 1793. 1196. <
-15 5 4 171. -299. 1196. <
15 5 -4 166. 0. 1196. <
-13 5 4 96720. 92054. 1196. o
13 5 -4 97619. 82191. 1494. o
-11 5 4 5206. 3586. 897. o
11 5 -4 5289. 2092. 1196. <
-9 5 4 1637. 1793. 1196. <
9 5 -4 1716. 2092. 1196. <
-7 5 4 768. 598. 897. <
7 5 -4 687. 598. 1196. <
-5 5 4 10278. 4782. 897. o
5 5 -4 9737. 3288. 1196. o
-3 5 4 435. 1196. 897. <
3 5 -4 464. 299. 1196. <
-1 5 4 2341. 2690. 1196. o
1 5 -4 2250. 3288. 1196. o
1 5 4 10160. 5978. 1196. o
-1 5 -4 10405. 4782. 1196. o
3 5 4 759. 598. 897. <
-3 5 -4 708. 1494. 1196. <
5 5 4 653. 598. 897. <
-5 5 -4 679. 1793. 1196. <
7 5 4 7747. 7472. 897. o
-7 5 -4 7224. 5679. 1196. o
9 5 4 68892. 78305. 1196. o
-9 5 -4 68590. 60074. 1196. o
11 5 4 870. 897. 897. <
-11 5 -4 884. 598. 2092. <
13 5 4 568. 0. 598. <
-13 5 -4 608. 598. 2092. <
15 5 4 6845. 5978. 897. o
-15 5 -4 6235. 5081. 1793. o
17 5 4 5783. 4483. 897. o
-17 5 -4 6010. 2092. 1793. <
19 5 4 1683. 2092. 897. o
-19 5 -4 1757. 2092. 1494. <
21 5 4 2640. 598. 897. <
-21 5 -4 2261. 2989. 1494. <
23 5 4 38816. 43636. 897. o
-23 5 -4 38642. 34072. 1494. o
25 5 4 107. -299. 897. <
-25 5 -4 77. 299. 1196. <
27 5 4 1065. 1196. 598. <
-27 5 -4 1118. 299. 1196. <
29 5 4 1424. 2092. 598. o
-29 5 -4 1253. 897. 897. <
31 5 4 761. 299. 598. <
-31 5 -4 720. 0. 1196. <
33 5 4 608. 299. 598. <
-33 5 -4 689. 1196. 1196. <
35 5 4 524. 598. 598. <
-35 5 -4 373. 1196. 897. <
37 5 4 7081. 6276. 598. o
-37 5 -4 7129. 6874. 1196. o
39 5 4 153. 598. 598. <
-39 5 -4 145. -299. 897. <
41 5 4 633. 1196. 598. <
-41 5 -4 607. -598. 897. <
-42 6 4 301. -299. 1494. <
42 6 -4 443. 897. 1494. <
-40 6 4 474. 1793. 1494. <
40 6 -4 857. 598. 1494. <
-38 6 4 32976. 43636. 1494. o
38 6 -4 37567. 37060. 1793. o
-36 6 4 6128. 9863. 1494. o
36 6 -4 6232. 8966. 1494. o
-34 6 4 3354. 4483. 1494. o
34 6 -4 2890. 2391. 1494. <
-32 6 4 14745. 12852. 1494. o
32 6 -4 15960. 10760. 1196. o
-30 6 4 40210. 61269. 1494. o
30 6 -4 44924. 55292. 1793. o
-28 6 4 210. 897. 1196. <
28 6 -4 274. -897. 1196. <
-26 6 4 11. 0. 1196. <
26 6 -4 227. 299. 1196. <
-24 6 4 46266. 65155. 1494. o
24 6 -4 55291. 55591. 1494. o
-22 6 4 14072. 17932. 1196. o
22 6 -4 11137. 14944. 1196. o
-20 6 4 5143. 5380. 1196. o
20 6 -4 3101. 3288. 1196. o
-18 6 4 8047. 7173. 1196. o
18 6 -4 9690. 4184. 1494. o
-16 6 4 23791. 32876. 1196. o
16 6 -4 25169. 26301. 1494. o
-14 6 4 291. 1196. 897. <
14 6 -4 95. -299. 1196. <
-12 6 4 35. 299. 897. <
12 6 -4 352. 897. 1196. <
-10 6 4 8764. 11656. 897. o
10 6 -4 16928. 8966. 1196. o
-8 6 4 7349. 11656. 897. o
8 6 -4 5954. 6874. 1196. o
-6 6 4 3836. 1494. 897. <
6 6 -4 1187. 598. 1196. <
-4 6 4 1911. 1196. 897. <
4 6 -4 2440. 1196. 1494. <
-2 6 4 5734. 14346. 897. o
2 6 -4 9654. 11058. 1494. o
0 6 4 584. -299. 897. <
0 6 -4 1528. 897. 1494. <
2 6 4 316. 598. 897. <
-2 6 -4 1541. 299. 1196. <
4 6 4 4663. 4483. 897. o
-4 6 -4 7715. 4184. 1196. o
6 6 4 12470. 19427. 1196. o
-6 6 -4 15903. 15243. 1494. o
8 6 4 4400. 897. 897. <
-8 6 -4 1785. 1494. 1196. <
10 6 4 1886. 598. 897. <
-10 6 -4 1112. 598. 1196. <
12 6 4 27096. 32577. 1196. o
-12 6 -4 24522. 21818. 2092. o
14 6 4 809. 2391. 897. o
-14 6 -4 1526. 897. 1793. <
16 6 4 560. 2092. 897. o
-16 6 -4 1066. 1196. 1494. <
18 6 4 14015. 13150. 897. o
-18 6 -4 11883. 6575. 1494. o
20 6 4 37158. 49016. 897. o
-20 6 -4 35068. 28094. 1494. o
22 6 4 1708. 1196. 897. <
-22 6 -4 1169. 0. 1196. <
24 6 4 482. 299. 897. <
-24 6 -4 748. 897. 1196. <
26 6 4 36646. 41544. 897. o
-26 6 -4 31800. 30186. 1196. o
28 6 4 2739. 2989. 897. o
-28 6 -4 2412. 897. 1196. <
30 6 4 1362. 1494. 897. <
-30 6 -4 1609. 598. 1196. <
32 6 4 7274. 5380. 897. o
-32 6 -4 6327. 4483. 1196. o
34 6 4 21332. 21818. 897. o
-34 6 -4 19969. 20622. 1196. o
36 6 4 402. 1494. 897. <
-36 6 -4 432. 1494. 1196. <
-37 7 4 813. 2391. 1494. <
37 7 -4 693. 598. 1494. <
-35 7 4 4690. 897. 1494. <
35 7 -4 4956. 2690. 1494. <
-33 7 4 4977. 2690. 1494. <
33 7 -4 4249. 4184. 1196. o
-31 7 4 1035. 1196. 1196. <
31 7 -4 1149. 598. 1196. <
-29 7 4 910. -299. 1196. <
29 7 -4 998. -299. 1196. <
-27 7 4 2616. 4184. 1196. o
27 7 -4 2453. 4184. 1196. o
-25 7 4 1627. 2391. 1494. <
25 7 -4 1412. 2391. 1196. <
-23 7 4 1341. 598. 1196. <
23 7 -4 1273. 1494. 1196. <
-21 7 4 15857. 12553. 1196. o
21 7 -4 16272. 9265. 1196. o
-19 7 4 14874. 11955. 1196. o
19 7 -4 13620. 7173. 1494. o
-17 7 4 2151. -598. 897. <
17 7 -4 2323. 0. 1196. <
-15 7 4 1335. 299. 897. <
15 7 -4 1494. 598. 1196. <
-13 7 4 2242. 2690. 598. o
13 7 -4 2083. 3288. 1196. o
-11 7 4 521. 897. 897. <
11 7 -4 471. 299. 1196. <
-9 7 4 1593. 598. 897. <
9 7 -4 1672. 299. 1196. <
-7 7 4 6555. 3586. 897. o
7 7 -4 6625. 2391. 1196. <
-5 7 4 4754. 3586. 897. o
5 7 -4 4342. 2391. 1494. <
-3 7 4 1785. -598. 897. <
3 7 -4 1905. -598. 1494. <
-1 7 4 1766. -299. 897. <
1 7 -4 1846. -598. 1196. <
1 7 4 8159. 5679. 897. o
-1 7 -4 8675. 4483. 1494. o
3 7 4 2063. 598. 897. <
-3 7 -4 2192. 598. 1196. <
5 7 4 648. 897. 897. <
-5 7 -4 622. 897. 1494. <
7 7 4 632. -897. 897. <
-7 7 -4 805. 598. 1196. <
9 7 4 3557. 2690. 897. o
-9 7 -4 3689. 2690. 1196. o
11 7 4 352. -598. 897. <
-11 7 -4 319. 299. 1196. <
13 7 4 2096. 598. 897. <
-13 7 -4 1909. -2391. 1793. <
15 7 4 15036. 14944. 897. o
-15 7 -4 15940. 6874. 1494. o
17 7 4 4654. 5380. 897. o
-17 7 -4 4410. 2092. 1494. <
19 7 4 871. 0. 897. <
-19 7 -4 835. -299. 1494. <
21 7 4 251. 0. 897. <
-21 7 -4 425. 299. 1196. <
23 7 4 1379. 2092. 897. o
-23 7 -4 1513. 897. 1196. <
25 7 4 487. 1793. 897. <
-25 7 -4 365. 299. 1196. <
27 7 4 648. 299. 897. <
-27 7 -4 502. 2391. 1196. <
29 7 4 2861. 3288. 897. o
-29 7 -4 3274. 2092. 1196. <
31 7 4 1130. 598. 897. <
-31 7 -4 959. 299. 1196. <
33 7 4 107. -598. 897. <
-33 7 -4 137. 0. 1196. <
-32 8 4 7115. 1793. 1494. <
32 8 -4 4816. 1793. 1196. <
-30 8 4 44478. 56189. 1494. o
30 8 -4 42131. 44831. 1494. o
-28 8 4 1052. 897. 1196. <
28 8 -4 978. 1793. 1196. <
-26 8 4 6372. 4184. 1494. o
26 8 -4 6294. -299. 1196. <
-24 8 4 69378. 81892. 1793. o
24 8 -4 67564. 64856. 1494. o
-22 8 4 45799. 56786. 1494. o
22 8 -4 45745. 33474. 1494. o
-20 8 4 14084. 14346. 1196. o
20 8 -4 13852. 7173. 1494. o
-18 8 4 16861. 9265. 897. o
18 8 -4 14292. 4782. 1196. o
-16 8 4 149696. 150932. 1196. o
16 8 -4 148173. 112377. 1494. o
-14 8 4 1466. 1793. 897. <
14 8 -4 1584. 1793. 1196. <
-12 8 4 13797. 9863. 897. o
12 8 -4 14222. 6874. 1196. o
-10 8 4 163057. 147047. 1196. o
10 8 -4 162634. 93847. 1494. o
-8 8 4 124386. 126424. 1196. o
8 8 -4 123424. 74719. 1793. o
-6 8 4 26882. 23910. 897. o
6 8 -4 26945. 13449. 1494. o
-4 8 4 16382. 13748. 897. o
4 8 -4 15917. 8667. 1494. o
-2 8 4 236746. 283633. 1494. o
2 8 -4 233709. 195464. 1793. o
0 8 4 4997. 3586. 1196. o
0 8 -4 4408. 3885. 1494. o
2 8 4 15715. 17335. 897. o
-2 8 -4 15832. 13150. 1494. o
4 8 4 133643. 139874. 1196. o
-4 8 -4 135414. 115964. 1793. o
6 8 4 122790. 135092. 1196. o
-6 8 -4 119590. 122240. 1494. o
8 8 4 16366. 15243. 1196. o
-8 8 -4 16669. 14346. 1196. o
10 8 4 6374. 4184. 897. o
-10 8 -4 6716. 3586. 1196. o
12 8 4 118015. 148840. 1494. o
-12 8 -4 118931. 129413. 1494. o
14 8 4 4958. 1793. 897. <
-14 8 -4 4048. 3885. 1793. o
16 8 4 5913. 5679. 897. o
-16 8 -4 6164. -897. 1494. <
18 8 4 41267. 48717. 897. o
-18 8 -4 43397. 17634. 1793. o
20 8 4 43511. 52901. 897. o
-20 8 -4 44045. 21220. 1793. o
22 8 4 4445. 3885. 897. o
-22 8 -4 4324. 2391. 1494. <
24 8 4 2243. 2092. 897. o
-24 8 -4 2240. 598. 1494. <
26 8 4 27362. 37957. 897. o
-26 8 -4 29229. 19726. 1494. o
28 8 4 1053. 897. 897. <
-28 8 -4 855. 1494. 1196. <
-23 9 4 563. 1494. 1196. <
23 9 -4 680. 598. 1196. <
-21 9 4 2349. 2690. 1196. o
21 9 -4 2206. 1793. 1196. <
-19 9 4 3114. 2989. 897. o
19 9 -4 3459. 2092. 1196. <
-17 9 4 294. -598. 897. <
17 9 -4 219. 1196. 1196. <
-15 9 4 166. 1196. 897. <
15 9 -4 90. 598. 1196. <
-13 9 4 6602. 2391. 897. o
13 9 -4 6924. 299. 1196. <
-11 9 4 1042. 1494. 598. o
11 9 -4 1054. 1196. 1494. <
-9 9 4 116. 897. 598. <
9 9 -4 156. 299. 1494. <
-7 9 4 813. 598. 897. <
7 9 -4 712. 299. 1494. <
-5 9 4 931. 1196. 598. <
5 9 -4 887. 0. 1494. <
-3 9 4 150. 598. 897. <
3 9 -4 155. -598. 1494. <
-1 9 4 397. 299. 897. <
1 9 -4 300. 1196. 1494. <
1 9 4 16. 897. 897. <
-1 9 -4 3. -598. 1494. <
3 9 4 275. 1196. 897. <
-3 9 -4 226. -1793. 1494. <
5 9 4 1039. 2092. 1196. <
-5 9 -4 1064. 2092. 1494. <
7 9 4 1135. 2989. 897. o
-7 9 -4 919. 1793. 1196. <
9 9 4 4350. 1196. 897. <
-9 9 -4 4197. 2391. 1196. <
11 9 4 351. 598. 897. <
-11 9 -4 361. 1494. 1196. <
13 9 4 28. 299. 897. <
-13 9 -4 63. 897. 1196. <
15 9 4 2065. 1793. 1196. <
-15 9 -4 1839. 897. 1793. <
17 9 4 1968. 2690. 897. o
-17 9 -4 2102. 897. 1793. <
19 9 4 986. 897. 897. <
-19 9 -4 981. 897. 1793. <
-6 10 4 546. -598. 897. <
6 10 -4 530. 598. 1793. <
-4 10 4 1861. 299. 897. <
4 10 -4 1896. 598. 1494. <
-2 10 4 8180. 11058. 897. o
2 10 -4 8907. 7472. 1494. o
0 10 4 239. 299. 897. <
0 10 -4 494. 598. 1494. <
2 10 4 262. 598. 897. <
-2 10 -4 238. 1196. 1793. <
-49 1 5 1057. -299. 897. <
49 1 -5 996. 1196. 1494. <
-47 1 5 3328. 1196. 897. <
47 1 -5 3552. 299. 1494. <
-45 1 5 52228. 32577. 1196. o
45 1 -5 55791. 50211. 1793. o
-43 1 5 664. 299. 897. <
43 1 -5 353. 0. 1494. <
-41 1 5 736. 598. 897. <
41 1 -5 988. 1196. 1494. <
-39 1 5 19284. 9564. 1196. o
39 1 -5 15386. 11656. 1494. o
-37 1 5 28453. 22117. 1196. o
37 1 -5 29275. 28692. 1494. o
-35 1 5 3524. 2092. 1196. <
35 1 -5 2836. 2391. 1196. <
-33 1 5 4657. 6575. 1196. o
33 1 -5 4444. 9863. 1494. o
-31 1 5 207342. 179624. 1793. o
31 1 -5 220459. 235514. 2092. o
-29 1 5 5134. 4483. 1494. o
29 1 -5 3188. 2989. 1196. o
-27 1 5 2868. 3586. 1494. o
27 1 -5 3524. 3288. 1196. o
-25 1 5 41561. 33773. 1494. o
25 1 -5 35172. 30485. 1196. o
-23 1 5 69630. 72328. 1494. o
23 1 -5 66130. 60672. 1494. o
-21 1 5 4662. 4782. 1196. o
21 1 -5 2839. 5978. 1196. o
-19 1 5 4041. 8369. 897. o
19 1 -5 2631. 6874. 1196. o
-17 1 5 442592. 523928. 2092. o
17 1 -5 466934. 477902. 2989. o
-15 1 5 23125. 20324. 897. o
15 1 -5 17675. 17335. 1196. o
-13 1 5 14412. 16737. 897. o
13 1 -5 13624. 16737. 1494. o
-11 1 5 54646. 63959. 897. o
11 1 -5 56077. 60074. 1494. o
-9 1 5 89605. 80696. 897. o
9 1 -5 76312. 87869. 1494. o
-7 1 5 4256. 3586. 897. o
-5 1 5 8005. 8369. 598. o
-3 1 5 469168. 511675. 1494. o
-1 1 5 48201. 37359. 897. o
1 1 5 25108. 22117. 897. o
-1 1 -5 23123. 19128. 897. o
3 1 5 52985. 54096. 897. o
-3 1 -5 58110. 58580. 1196. o
5 1 5 88823. 95640. 897. o
-5 1 -5 78253. 83984. 1494. o
7 1 5 446. 4184. 598. o
-7 1 -5 293. 4483. 1196. o
9 1 5 3362. 7771. 598. o
-9 1 -5 4111. 3885. 1196. o
11 1 5 285792. 409160. 2391. o
13 1 5 57429. 58281. 1196. o
15 1 5 22138. 18530. 897. o
-15 1 -5 20699. 17634. 598. o
17 1 5 29171. 34968. 897. o
-17 1 -5 32240. 35267. 897. o
19 1 5 48949. 50809. 1196. o
-19 1 -5 40198. 49314. 897. o
21 1 5 2386. 299. 897. <
-21 1 -5 2805. 299. 897. <
23 1 5 1504. 2391. 897. o
-23 1 -5 2496. 3586. 598. o
25 1 5 105391. 107595. 1494. o
-25 1 -5 103357. 109089. 1196. o
27 1 5 34832. 25703. 1196. o
-27 1 -5 38382. 24807. 897. o
29 1 5 8867. 5679. 897. o
-29 1 -5 7621. 6575. 897. o
31 1 5 10326. 6874. 897. o
-31 1 -5 12517. 8070. 897. o
33 1 5 15331. 12852. 897. o
-33 1 -5 12696. 14645. 1196. o
35 1 5 3478. 299. 897. <
-35 1 -5 3187. -299. 897. <
37 1 5 354. 299. 897. <
-37 1 -5 901. 1793. 1196. <
39 1 5 23106. 18829. 897. o
-39 1 -5 21570. 26002. 1196. o
41 1 5 11158. 8070. 897. o
-41 1 -5 12630. 15840. 897. o
43 1 5 1760. 299. 897. <
-43 1 -5 1180. 2391. 897. o
-48 2 5 344. 299. 1196. <
48 2 -5 309. 598. 2391. <
-46 2 5 145. 897. 1494. <
46 2 -5 162. -897. 2092. <
-44 2 5 152. 897. 1494. <
44 2 -5 152. 2391. 2092. <
-42 2 5 1360. 299. 1494. <
42 2 -5 1385. 1494. 2092. <
-40 2 5 1013. 1196. 1196. <
40 2 -5 920. 2092. 2391. <
-38 2 5 341. 2391. 1494. <
38 2 -5 325. 2690. 2092. <
-36 2 5 1188. 1494. 1196. <
36 2 -5 1257. 1196. 2092. <
-34 2 5 4259. 3586. 1196. o
34 2 -5 4096. 2989. 1793. <
-32 2 5 433. 299. 1494. <
32 2 -5 503. 299. 1793. <
-30 2 5 780. -598. 1494. <
30 2 -5 820. -299. 1494. <
-28 2 5 3056. 1793. 1196. <
28 2 -5 3170. -598. 1793. <
-26 2 5 3104. 897. 1196. <
26 2 -5 2966. -897. 1793. <
-24 2 5 657. 1494. 1494. <
24 2 -5 629. -1196. 1494. <
-22 2 5 1038. 1494. 1196. <
22 2 -5 1183. 2690. 1196. o
-20 2 5 18882. 22117. 1494. o
20 2 -5 18198. 23611. 1494. o
-18 2 5 436. 598. 1494. <
18 2 -5 465. 2092. 1196. <
-16 2 5 1207. 598. 1196. <
16 2 -5 1171. 3586. 897. o
-14 2 5 2173. 1196. 1196. <
14 2 -5 2188. -897. 897. <
-12 2 5 480. 1494. 1196. <
12 2 -5 549. 4782. 897. o
-10 2 5 2120. 2092. 1196. <
10 2 -5 2117. 2989. 1196. o
-8 2 5 353. 299. 1196. <
8 2 -5 324. 2391. 897. o
-6 2 5 18668. 14346. 1494. o
6 2 -5 18257. 12852. 1196. o
-4 2 5 2257. 598. 1196. <
4 2 -5 2337. 299. 598. <
-2 2 5 761. 1196. 1494. <
2 2 -5 787. 1196. 1196. <
0 2 5 3388. 4184. 897. o
0 2 -5 3407. 3288. 897. o
2 2 5 8839. 7472. 897. o
-2 2 -5 8889. 7472. 1196. o
4 2 5 2725. 2690. 897. o
-4 2 -5 2724. 2690. 1196. o
6 2 5 1119. 598. 897. <
-6 2 -5 1134. 897. 1196. <
8 2 5 5349. 2391. 598. o
-8 2 -5 5276. 1793. 1196. <
10 2 5 47. 1196. 598. <
-10 2 -5 50. -299. 1196. <
12 2 5 774. -299. 598. <
-12 2 -5 764. 0. 1196. <
14 2 5 2299. 2989. 598. o
-14 2 -5 2452. 2391. 1196. <
16 2 5 9571. 11058. 897. o
-16 2 -5 9489. 8070. 1196. o
18 2 5 777. 299. 598. <
-18 2 -5 788. 1494. 1196. <
20 2 5 483. 598. 897. <
-20 2 -5 480. 0. 1196. <
22 2 5 1048. 1793. 897. <
-22 2 -5 1080. 1494. 1494. <
24 2 5 733. 598. 897. <
-24 2 -5 763. -598. 1494. <
26 2 5 704. 299. 897. <
-26 2 -5 704. -598. 1494. <
28 2 5 584. 1196. 598. <
-28 2 -5 662. 598. 1494. <
30 2 5 3129. 2690. 897. o
-30 2 -5 3041. 2690. 897. o
32 2 5 96. -598. 897. <
-32 2 -5 120. 299. 897. <
34 2 5 440. 1196. 897. <
-34 2 -5 423. -598. 897. <
36 2 5 450. 299. 598. <
-36 2 -5 434. 1494. 897. <
38 2 5 506. 299. 598. <
-38 2 -5 551. 1793. 897. <
40 2 5 405. 598. 897. <
-40 2 -5 382. 1494. 897. <
42 2 5 329. -598. 897. <
-42 2 -5 373. 299. 897. <
-47 3 5 2321. 299. 1196. <
47 3 -5 1969. 3288. 2092. <
-45 3 5 35701. 35566. 1494. o
45 3 -5 36121. 31083. 1793. o
-43 3 5 1990. 299. 1196. <
43 3 -5 1521. 1494. 1793. <
-41 3 5 2201. 1494. 1196. <
41 3 -5 1976. 2391. 1793. <
-39 3 5 19800. 18231. 1196. o
39 3 -5 16568. 15542. 1793. o
-37 3 5 33511. 31681. 1494. o
37 3 -5 30560. 38555. 2092. o
-35 3 5 6836. 4184. 1494. o
35 3 -5 5282. 2989. 2092. <
-33 3 5 6945. 5978. 1196. o
33 3 -5 5530. 3288. 1793. <
-31 3 5 154788. 232525. 2391. o
31 3 -5 156182. 258228. 2989. o
-29 3 5 8446. 7472. 1196. o
29 3 -5 8132. 11656. 1793. o
-27 3 5 8650. 6874. 1494. o
27 3 -5 9183. -897. 1196. <
-25 3 5 62713. 97433. 1793. o
25 3 -5 54596. -1196. 1196. <
-23 3 5 119735. 145851. 1793. o
23 3 -5 116430. 109089. 1793. o
-21 3 5 15509. 7472. 1494. o
21 3 -5 12478. 10461. 1494. o
-19 3 5 11349. 5081. 1494. o
19 3 -5 9807. 11357. 1494. o
-17 3 5 437080. 635409. 2989. o
17 3 -5 438896. 668584. 3288. o
-15 3 5 36491. 38555. 1494. o
15 3 -5 38574. 34072. 1494. o
-13 3 5 24017. 20921. 1196. o
13 3 -5 26256. 24209. 1196. o
-11 3 5 120465. 143460. 1494. o
11 3 -5 115786. 191579. 2092. o
-9 3 5 264660. 293496. 2391. o
9 3 -5 258576. 296484. 2092. o
-7 3 5 8381. 10461. 1494. o
7 3 -5 5828. 9564. 598. o
-5 3 5 7614. 5081. 1793. o
5 3 -5 7258. 8070. 598. o
-3 3 5 583592. 682930. 3885. o
3 3 -5 580984. 647364. 2092. o
-1 3 5 76596. 60074. 2092. o
1 3 -5 77114. 59476. 897. o
1 3 5 29250. 22416. 1793. o
-1 3 -5 32784. 25106. 897. o
3 3 5 91567. 108791. 1494. o
-3 3 -5 93134. 97134. 2092. o
5 3 5 239879. 249860. 1793. o
-5 3 -5 231908. 203833. 2391. o
7 3 5 1973. 4184. 897. o
-7 3 -5 2670. 2989. 1196. o
9 3 5 3876. 5978. 897. o
-9 3 -5 4546. 4782. 1196. o
11 3 5 322698. 385250. 1793. o
-11 3 -5 323460. 280046. 2690. o
13 3 5 50065. 45130. 897. o
-13 3 -5 50294. 29888. 1494. o
15 3 5 14676. 11955. 897. o
-15 3 -5 16088. 7472. 1494. o
17 3 5 29628. 38256. 897. o
-17 3 -5 32312. 19128. 1793. o
19 3 5 83640. 102514. 897. o
-19 3 -5 81660. 55292. 2092. o
21 3 5 3340. 598. 598. <
-21 3 -5 3621. 1793. 1494. <
23 3 5 1860. 3885. 598. o
-23 3 -5 2333. 4483. 1494. o
25 3 5 86654. 120746. 897. o
-25 3 -5 88074. 117458. 2092. o
27 3 5 22071. 16737. 598. o
-27 3 -5 23423. 21818. 1793. o
29 3 5 5618. 3586. 598. o
-29 3 -5 5130. 4782. 1494. o
31 3 5 8547. 9564. 598. o
-31 3 -5 9543. 8369. 1494. o
33 3 5 17233. 20622. 897. o
-33 3 -5 17015. 22416. 1494. o
35 3 5 1867. 299. 897. <
-35 3 -5 1909. 598. 1196. <
37 3 5 583. -299. 897. <
-37 3 -5 814. 1494. 1196. <
39 3 5 16835. 15840. 897. o
-39 3 -5 16464. 20324. 1196. o
41 3 5 6136. 4483. 897. o
-41 3 -5 6854. 6575. 1196. o
-44 4 5 345. 1494. 1494. <
44 4 -5 412. 1793. 1494. <
-42 4 5 4845. 4483. 1196. o
42 4 -5 4863. 3586. 1793. <
-40 4 5 157. -598. 1196. <
40 4 -5 220. -299. 1196. <
-38 4 5 50. 0. 1196. <
38 4 -5 54. -299. 1196. <
-36 4 5 1212. 299. 1196. <
36 4 -5 1249. 2690. 1494. <
-34 4 5 49. 1196. 1196. <
34 4 -5 17. 299. 1793. <
-32 4 5 1195. 598. 1196. <
32 4 -5 1304. 1196. 1793. <
-30 4 5 1691. 897. 1196. <
30 4 -5 1878. 1196. 1494. <
-28 4 5 20259. 26301. 1494. o
28 4 -5 20306. 26002. 1793. o
-26 4 5 2825. 1793. 1494. <
26 4 -5 3239. 4483. 1793. o
-24 4 5 615. 0. 1494. <
24 4 -5 653. 897. 1793. <
-22 4 5 1646. 598. 1494. <
22 4 -5 1622. -299. 1494. <
-20 4 5 587. 1793. 1196. <
20 4 -5 439. 2092. 1494. <
-18 4 5 3524. 2989. 1196. o
18 4 -5 3823. 2690. 1494. <
-16 4 5 2810. 1494. 1196. <
16 4 -5 3053. 1196. 1196. <
-14 4 5 22040. 17932. 1196. o
14 4 -5 22076. 22714. 1494. o
-12 4 5 11287. 8966. 1196. o
12 4 -5 11792. 9265. 1196. o
-10 4 5 2572. 1196. 1196. <
10 4 -5 2612. 299. 897. <
-8 4 5 446. 1196. 897. <
8 4 -5 379. 897. 598. <
-6 4 5 11441. 10760. 1196. o
6 4 -5 10944. 8369. 897. o
-4 4 5 3069. 1793. 1196. <
4 4 -5 3124. 1793. 598. o
-2 4 5 1452. -299. 897. <
2 4 -5 1537. 0. 598. <
0 4 5 2541. 1793. 1196. <
0 4 -5 2490. 2690. 598. o
2 4 5 3101. 1793. 897. <
-2 4 -5 3190. 1793. 897. <
4 4 5 1216. -598. 1196. <
-4 4 -5 1190. 598. 897. <
6 4 5 1135. 0. 1196. <
-6 4 -5 1016. 897. 1494. <
8 4 5 29184. 27795. 897. o
-8 4 -5 28615. 17036. 1494. o
10 4 5 74. 0. 897. <
-10 4 -5 71. 2092. 1793. <
12 4 5 830. 897. 897. <
-12 4 -5 885. 598. 1494. <
14 4 5 984. 1494. 897. <
-14 4 -5 834. 1494. 1494. <
16 4 5 2714. 299. 598. <
-16 4 -5 2630. 2690. 1793. <
18 4 5 304. 1196. 897. <
-18 4 -5 358. 299. 1793. <
20 4 5 303. 598. 598. <
-20 4 -5 274. 3288. 1793. <
22 4 5 13781. 14047. 897. o
-22 4 -5 13560. 14645. 1793. o
24 4 5 556. 1494. 598. o
-24 4 -5 660. 2391. 1494. <
26 4 5 1133. 1196. 598. <
-26 4 -5 1150. 2092. 1494. <
28 4 5 690. 598. 598. <
-28 4 -5 721. 2391. 1196. <
30 4 5 1486. 0. 598. <
-30 4 -5 1346. 1196. 1196. <
32 4 5 632. 598. 598. <
-32 4 -5 700. 299. 1196. <
34 4 5 223. 1196. 598. <
-34 4 -5 199. 598. 1196. <
36 4 5 2466. 2391. 598. o
-36 4 -5 2407. 3288. 1196. o
38 4 5 473. -299. 897. <
-38 4 -5 561. 1793. 897. <
40 4 5 564. 299. 897. <
-40 4 -5 526. 1494. 1196. <
-43 5 5 796. 897. 1196. <
43 5 -5 772. 897. 1494. <
-41 5 5 1644. -897. 1494. <
41 5 -5 2313. 299. 1494. <
-39 5 5 20506. 17036. 1494. o
39 5 -5 23951. 16139. 1494. o
-37 5 5 19076. 18530. 1494. o
37 5 -5 19584. 18231. 1494. o
-35 5 5 2168. 3288. 1494. o
35 5 -5 2057. 1793. 1494. <
-33 5 5 4384. 3288. 1494. o
33 5 -5 4950. 2391. 1494. <
-31 5 5 60698. 74121. 1494. o
31 5 -5 67667. 69040. 1793. o
-29 5 5 4089. 5679. 1196. o
29 5 -5 3278. 0. 1196. <
-27 5 5 2793. 1196. 1196. <
27 5 -5 4463. 3288. 1196. o
-25 5 5 28524. 39452. 1494. o
25 5 -5 37139. 30784. 1793. o
-23 5 5 48763. 54694. 1494. o
23 5 -5 45617. 51407. 1793. o
-21 5 5 2529. 5380. 1494. o
21 5 -5 2900. 4782. 1494. o
-19 5 5 655. 1793. 1494. <
19 5 -5 1466. 2391. 1494. <
-17 5 5 78285. 102514. 1793. o
17 5 -5 84624. 112676. 1793. o
-15 5 5 7758. 4184. 1196. o
15 5 -5 4708. 3885. 1494. o
-13 5 5 3630. 2690. 1196. o
13 5 -5 5212. 2989. 1196. o
-11 5 5 16982. 23013. 1196. o
11 5 -5 28779. 16737. 1196. o
-9 5 5 47953. 49016. 1196. o
9 5 -5 42443. 43636. 1196. o
-7 5 5 3854. 4483. 897. o
7 5 -5 3587. 3288. 897. o
-5 5 5 924. 598. 1196. <
5 5 -5 995. -299. 897. <
-3 5 5 64454. 74121. 1196. o
3 5 -5 67494. 66051. 1196. o
-1 5 5 3057. 2989. 1196. o
1 5 -5 3020. 598. 897. <
1 5 5 3731. 3885. 1196. o
-1 5 -5 3848. 2989. 897. o
3 5 5 12119. 18231. 1196. o
-3 5 -5 16808. 14645. 1196. o
5 5 5 46997. 48418. 1196. o
-5 5 -5 47836. 34670. 897. o
7 5 5 2423. 2391. 1196. <
-7 5 -5 1484. 598. 1494. <
9 5 5 2081. 1494. 897. <
-9 5 -5 1984. 897. 1793. <
11 5 5 72981. 77708. 897. o
-11 5 -5 69518. 29290. 2092. o
13 5 5 5930. 2989. 897. o
-13 5 -5 7324. 2989. 1793. <
15 5 5 3372. 2391. 897. o
-15 5 -5 2907. 299. 1793. <
17 5 5 8891. 11357. 897. o
-17 5 -5 8552. 5679. 1793. o
19 5 5 47694. 46027. 897. o
-19 5 -5 46266. 47521. 2391. o
21 5 5 210. 1196. 598. <
-21 5 -5 163. -598. 1793. <
23 5 5 2189. 2989. 897. o
-23 5 -5 2303. 2092. 1793. <
25 5 5 40256. 43636. 897. o
-25 5 -5 38238. 43038. 1793. o
27 5 5 8933. 5081. 897. o
-27 5 -5 8552. 4184. 1196. o
29 5 5 2859. 1494. 598. o
-29 5 -5 2786. 1196. 1196. <
31 5 5 3950. 2092. 598. o
-31 5 -5 3702. 2092. 1196. <
33 5 5 18825. 19427. 598. o
-33 5 -5 18127. 18530. 1196. o
35 5 5 812. 1196. 598. <
-35 5 -5 945. 299. 897. <
37 5 5 1207. 2092. 598. o
-37 5 -5 1303. 1494. 1196. <
-38 6 5 256. 1793. 1494. <
38 6 -5 260. 598. 1494. <
-36 6 5 2868. 2690. 1494. <
36 6 -5 3020. 2092. 1494. <
-34 6 5 5824. 897. 1494. <
34 6 -5 5221. 897. 1494. <
-32 6 5 242. 897. 1494. <
32 6 -5 321. 897. 1494. <
-30 6 5 2221. 1494. 1494. <
30 6 -5 2157. 598. 1494. <
-28 6 5 479. 598. 1494. <
28 6 -5 532. -299. 1196. <
-26 6 5 3172. -897. 1494. <
26 6 -5 2696. 1494. 1196. <
-24 6 5 126. 598. 1494. <
24 6 -5 147. -897. 1196. <
-22 6 5 5285. 5679. 1196. o
22 6 -5 5412. 3586. 1196. o
-20 6 5 18295. 15542. 1494. o
20 6 -5 17299. 12254. 1196. o
-18 6 5 224. 1196. 1196. <
18 6 -5 217. -299. 1196. <
-16 6 5 2798. 1494. 1196. <
16 6 -5 2770. 1494. 1196. <
-14 6 5 19. 299. 897. <
14 6 -5 23. 897. 1196. <
-12 6 5 726. 897. 897. <
12 6 -5 546. 299. 897. <
-10 6 5 404. 897. 897. <
10 6 -5 359. 897. 897. <
-8 6 5 378. 598. 897. <
8 6 -5 382. 598. 1196. <
-6 6 5 8664. 4483. 897. o
6 6 -5 8157. 3885. 897. o
-4 6 5 1995. -897. 897. <
4 6 -5 2123. 0. 1196. <
-2 6 5 1881. 1494. 897. <
2 6 -5 1811. 1494. 1196. <
0 6 5 6102. 3288. 897. o
0 6 -5 6377. 2989. 1196. o
2 6 5 3220. 897. 897. <
-2 6 -5 3420. 1793. 897. <
4 6 5 1078. 1793. 897. <
-4 6 -5 1083. 299. 1196. <
6 6 5 476. 299. 897. <
-6 6 -5 607. -1196. 1196. <
8 6 5 1518. 299. 897. <
-8 6 -5 1623. 1196. 1196. <
10 6 5 474. 1494. 897. <
-10 6 -5 432. 1196. 1793. <
12 6 5 1304. 2092. 598. o
-12 6 -5 1198. 299. 1793. <
14 6 5 5093. 5978. 598. o
-14 6 -5 5626. 3885. 2092. <
16 6 5 6392. 6575. 598. o
-16 6 -5 6299. 6874. 1793. o
18 6 5 633. 598. 897. <
-18 6 -5 666. 1196. 1793. <
20 6 5 77. 299. 897. <
-20 6 -5 150. 1793. 1793. <
22 6 5 318. 0. 897. <
-22 6 -5 410. 1196. 1494. <
24 6 5 528. 1494. 897. <
-24 6 -5 455. 2391. 1494. <
26 6 5 438. 299. 897. <
-26 6 -5 361. 2092. 1494. <
28 6 5 616. 598. 897. <
-28 6 -5 840. 2092. 1196. <
30 6 5 1606. 1196. 897. <
-30 6 -5 1480. -598. 1196. <
32 6 5 63. 299. 598. <
-32 6 -5 103. -598. 1196. <
34 6 5 10. 1196. 598. <
-34 6 -5 30. 1494. 1196. <
-35 7 5 3259. 1793. 1494. <
35 7 -5 2614. -299. 1494. <
-33 7 5 3670. 598. 1494. <
33 7 -5 2653. -299. 1196. <
-31 7 5 52308. 65454. 1793. o
31 7 -5 46700. 43038. 1494. o
-29 7 5 6990. 5380. 1494. o
29 7 -5 7808. 1494. 1196. <
-27 7 5 8838. 4483. 1494. o
27 7 -5 8792. 5679. 1196. o
-25 7 5 43911. 61269. 1494. o
25 7 -5 40218. 36164. 1494. o
-23 7 5 78904. 83685. 1494. o
23 7 -5 78178. 75018. 1494. o
-21 7 5 8718. 5380. 1196. o
21 7 -5 7548. 6575. 1196. o
-19 7 5 7843. 5978. 1196. o
19 7 -5 6937. -299. 1196. <
-17 7 5 150395. 143460. 1793. o
17 7 -5 143276. 132402. 2092. o
-15 7 5 21971. 13150. 897. o
15 7 -5 24695. 10461. 1196. o
-13 7 5 17477. 11357. 897. o
13 7 -5 18326. 9564. 1196. o
-11 7 5 80935. 78604. 1196. o
11 7 -5 76676. 69339. 1494. o
-9 7 5 190436. 170957. 1494. o
9 7 -5 191564. 133597. 1494. o
-7 7 5 5337. 8070. 1196. o
7 7 -5 4588. 4782. 1196. o
-5 7 5 3140. 3586. 897. o
5 7 -5 3027. -598. 1196. <
-3 7 5 210546. 238801. 1494. o
3 7 -5 205217. 185303. 1793. o
-1 7 5 38548. 33474. 897. o
1 7 -5 38547. 19427. 1196. o
1 7 5 16277. 14346. 897. o
-1 7 -5 18008. 9564. 1196. o
3 7 5 51407. 63959. 1196. o
-3 7 -5 50833. 56786. 1494. o
5 7 5 177152. 182912. 1494. o
-5 7 -5 176473. 128516. 1494. o
7 7 5 2641. 2690. 897. o
-7 7 -5 3080. 2391. 1196. <
9 7 5 580. 1494. 1196. <
-9 7 -5 617. 4483. 1196. o
11 7 5 108190. 124332. 1494. o
-11 7 -5 108287. 68144. 2690. o
13 7 5 22751. 17634. 897. o
-13 7 -5 21342. 12852. 2391. o
15 7 5 7212. 3586. 897. o
-15 7 -5 8666. 2690. 2092. <
17 7 5 15688. 19427. 897. o
-17 7 -5 16667. 11357. 2391. o
19 7 5 61971. 69339. 897. o
-19 7 -5 63060. 54096. 2092. o
21 7 5 1215. -299. 897. <
-21 7 -5 1325. 1494. 1793. <
23 7 5 1492. 897. 897. <
-23 7 -5 1445. 2092. 1494. <
25 7 5 28597. 34072. 897. o
-25 7 -5 29721. 23312. 1494. o
27 7 5 5934. 3885. 897. o
-27 7 -5 5701. 2690. 1494. <
29 7 5 1540. 2989. 897. o
-29 7 -5 1904. -897. 1196. <
-28 8 5 5052. 2391. 1494. <
28 8 -5 5032. 1494. 1196. <
-26 8 5 1410. 299. 1196. <
26 8 -5 1877. 2092. 1196. <
-24 8 5 1035. 1494. 1196. <
24 8 -5 1122. 0. 1196. <
-22 8 5 590. -299. 1196. <
22 8 -5 501. 299. 897. <
-20 8 5 2017. 0. 1196. <
20 8 -5 2331. 1793. 1196. <
-18 8 5 505. 598. 1196. <
18 8 -5 672. -299. 1196. <
-16 8 5 177. 598. 897. <
16 8 -5 268. -598. 1196. <
-14 8 5 4237. 4184. 897. o
14 8 -5 4285. 2690. 1196. o
-12 8 5 2570. 1494. 897. <
12 8 -5 2939. 598. 1196. <
-10 8 5 2381. 598. 897. <
10 8 -5 2467. 897. 1196. <
-8 8 5 402. 0. 897. <
8 8 -5 307. 897. 1196. <
-6 8 5 76. 598. 897. <
6 8 -5 36. 0. 1196. <
-4 8 5 2341. 897. 897. <
4 8 -5 2350. 1793. 1196. <
-2 8 5 71. -598. 897. <
2 8 -5 57. 598. 1196. <
0 8 5 208. 598. 897. <
0 8 -5 151. 299. 1196. <
2 8 5 53. 299. 897. <
-2 8 -5 27. -598. 1196. <
4 8 5 1775. 2092. 897. o
-4 8 -5 1745. 1793. 1196. <
6 8 5 357. 299. 897. <
-6 8 -5 250. -299. 1196. <
8 8 5 6134. 3885. 897. o
-8 8 -5 5840. 5380. 1196. o
10 8 5 95. 299. 897. <
-10 8 -5 73. 299. 1196. <
12 8 5 45. 0. 897. <
-12 8 -5 65. 1196. 2391. <
14 8 5 1049. 598. 897. <
-14 8 -5 889. 299. 2391. <
16 8 5 1781. 3288. 897. o
-16 8 -5 1804. 1196. 2391. <
18 8 5 433. 598. 897. <
-18 8 -5 428. 2391. 1793. <
20 8 5 171. 598. 897. <
-20 8 -5 195. 897. 1793. <
22 8 5 4207. 5679. 897. o
-22 8 -5 4018. -1196. 1494. <
-17 9 5 15921. 13748. 897. o
17 9 -5 18376. 9564. 1196. o
-15 9 5 2772. 598. 897. <
15 9 -5 1548. 897. 1196. <
-13 9 5 1267. 897. 897. <
13 9 -5 1066. 299. 1196. <
-11 9 5 7534. 6276. 897. o
11 9 -5 11212. 4184. 1196. o
-9 9 5 14002. 8667. 897. o
9 9 -5 13622. 6575. 1196. o
-7 9 5 669. 299. 897. <
7 9 -5 929. 598. 1196. <
-5 9 5 242. 598. 897. <
5 9 -5 366. 1196. 1196. <
-3 9 5 11480. 11058. 897. o
3 9 -5 12907. 7771. 1196. o
-1 9 5 1032. 1196. 897. <
1 9 -5 1001. 1196. 1196. <
1 9 5 1920. 1793. 897. <
-1 9 -5 1323. 1793. 1196. <
3 9 5 5474. 3288. 897. o
-3 9 -5 6014. 3586. 1196. o
5 9 5 14284. 10461. 897. o
-5 9 -5 15404. 6874. 1196. o
7 9 5 1169. 299. 897. <
-7 9 -5 784. 0. 1494. <
9 9 5 55. 299. 1196. <
-9 9 -5 16. 598. 1494. <
11 9 5 14122. 11955. 897. o
-11 9 -5 13178. 5380. 2690. <
13 9 5 2111. 2092. 897. o
-13 9 -5 2711. 4782. 2989. <
-46 0 6 41567. 21220. 1494. o
46 0 -6 45793. 33474. 2092. o
-44 0 6 4985. 2092. 1196. <
44 0 -6 4674. 3586. 1793. <
-42 0 6 2287. 598. 1196. <
42 0 -6 2674. 2092. 1793. <
-40 0 6 13477. 3586. 1494. o
40 0 -6 13500. 9863. 1793. o
-38 0 6 26396. 22416. 1793. o
38 0 -6 25889. 23611. 1793. o
-36 0 6 2308. 598. 1494. <
36 0 -6 2172. 897. 1494. <
-34 0 6 3174. 1196. 1494. <
34 0 -6 3009. 1793. 1494. <
-32 0 6 119048. 113871. 2092. o
32 0 -6 131441. 95640. 2092. o
-30 0 6 18004. 20025. 1494. o
30 0 -6 14946. 18829. 1494. o
-28 0 6 6941. 8369. 1494. o
28 0 -6 7477. 6575. 1494. o
-26 0 6 14923. 18231. 1494. o
26 0 -6 17428. 12852. 1196. o
-24 0 6 31024. 28393. 1494. o
24 0 -6 19113. 26600. 1494. o
-22 0 6 3588. 2391. 1494. <
22 0 -6 3726. 2690. 1494. <
-20 0 6 5068. 6575. 1494. o
20 0 -6 4159. 4782. 1196. o
-18 0 6 86022. 104905. 2092. o
-16 0 6 18422. 24508. 1196. o
-14 0 6 4059. 4184. 897. o
-12 0 6 4379. 4782. 897. o
-10 0 6 12900. 7771. 897. o
-8 0 6 6415. 8369. 897. o
-6 0 6 2301. 2690. 598. o
-4 0 6 25628. 22416. 897. o
-2 0 6 20451. 26899. 897. o
0 0 6 1102. 1793. 598. o
2 0 6 4732. 2690. 598. o
4 0 6 12207. 8369. 598. o
6 0 6 8343. 15243. 598. o
8 0 6 1069. 2690. 1196. o
10 0 6 31149. 25703. 1196. o
-10 0 -6 27767. 23312. 897. o
12 0 6 50577. 72328. 1494. o
-12 0 -6 57336. 64856. 1196. o
14 0 6 1919. 2092. 1196. <
-14 0 -6 1474. 299. 897. <
16 0 6 3764. 897. 1196. <
-16 0 -6 5141. 1793. 897. <
18 0 6 31274. 26600. 1494. o
-18 0 -6 17369. 26899. 1196. o
20 0 6 7140. 14346. 1196. o
-20 0 -6 7168. 11058. 1196. o
22 0 6 2333. 5380. 1196. o
-22 0 -6 3424. 4483. 897. o
24 0 6 25422. 20921. 1494. o
-24 0 -6 19769. 20025. 1196. o
26 0 6 50196. 56487. 1793. o
-26 0 -6 49728. 53798. 1494. o
28 0 6 1908. 897. 1494. <
-28 0 -6 1354. -598. 1196. <
30 0 6 3566. 598. 1494. <
-30 0 -6 4364. 0. 1196. <
32 0 6 16827. 15840. 1494. o
-32 0 -6 12909. 14944. 1494. o
34 0 6 6391. 1793. 1196. <
-34 0 -6 5518. 4782. 1494. o
36 0 6 1561. 1793. 1494. <
-36 0 -6 2145. 2690. 1494. <
38 0 6 9125. 3288. 1196. o
-38 0 -6 7086. 5978. 1494. o
40 0 6 17136. 13748. 1494. o
-40 0 -6 17557. 25703. 1793. o
-47 1 6 49. -299. 897. <
47 1 -6 46. -598. 1494. <
-45 1 6 101. -299. 897. <
45 1 -6 93. 897. 1494. <
-43 1 6 648. 299. 1196. <
43 1 -6 660. 299. 1494. <
-41 1 6 1222. 299. 897. <
41 1 -6 1166. 299. 1196. <
-39 1 6 286. -598. 1196. <
39 1 -6 298. -598. 1196. <
-37 1 6 507. 0. 897. <
37 1 -6 505. -299. 1196. <
-35 1 6 11521. 7472. 1196. o
35 1 -6 11413. 9265. 1196. o
-33 1 6 49. 598. 1196. <
33 1 -6 42. 598. 1196. <
-31 1 6 1151. 598. 1196. <
31 1 -6 1136. 1196. 1196. <
-29 1 6 8375. 6874. 1196. o
29 1 -6 8486. 5380. 1196. o
-27 1 6 8657. 8667. 897. o
27 1 -6 8424. 8070. 1494. o
-25 1 6 2632. 3288. 897. o
25 1 -6 2632. 2092. 1196. <
-23 1 6 1017. 598. 897. <
23 1 -6 986. 897. 1196. <
-21 1 6 51825. 48717. 1196. o
21 1 -6 51835. 45429. 1494. o
-19 1 6 1936. 1196. 897. <
19 1 -6 1929. 1494. 1196. <
-17 1 6 6118. 6575. 897. o
17 1 -6 6073. 5380. 1196. o
-15 1 6 13543. 12852. 897. o
15 1 -6 13542. 10461. 1196. o
-13 1 6 10027. 8369. 897. o
13 1 -6 9979. 12254. 1196. o
-11 1 6 5884. 5380. 897. o
-9 1 6 627. 897. 598. <
-7 1 6 15629. 21220. 598. o
-5 1 6 4490. 1494. 598. o
-3 1 6 3012. 3586. 598. o
-1 1 6 3745. 897. 598. <
1 1 6 10431. 16438. 598. o
3 1 6 1358. 1793. 598. o
-3 1 -6 1344. 1196. 897. <
5 1 6 176. 1196. 598. <
-5 1 -6 177. 1494. 897. <
7 1 6 16591. 18829. 598. o
-7 1 -6 16707. 15243. 897. o
9 1 6 6732. 5679. 598. o
-9 1 -6 6727. 4483. 897. o
11 1 6 436. 299. 598. <
-11 1 -6 437. 1196. 897. <
13 1 6 5249. 5380. 598. o
-13 1 -6 5354. 3586. 1196. o
15 1 6 27963. 29589. 1196. o
-15 1 -6 27998. 30186. 1196. o
17 1 6 93. 0. 897. <
-17 1 -6 86. -299. 1196. <
19 1 6 603. 0. 897. <
-19 1 -6 575. 2092. 1196. <
21 1 6 9235. 10760. 897. o
-21 1 -6 9361. 9265. 598. o
23 1 6 2494. 2690. 897. o
-23 1 -6 2473. 1793. 598. o
25 1 6 598. 2391. 897. o
-25 1 -6 593. 1196. 598. <
27 1 6 1486. 598. 897. <
-27 1 -6 1549. 897. 897. <
29 1 6 5662. 5380. 897. o
-29 1 -6 5654. 5380. 897. o
31 1 6 66. -598. 897. <
-31 1 -6 67. -598. 1196. <
33 1 6 107. 1196. 897. <
-33 1 -6 99. 1196. 897. <
35 1 6 726. 598. 897. <
-35 1 -6 749. 1196. 897. <
37 1 6 22. 897. 897. <
-37 1 -6 17. 0. 1196. <
39 1 6 66. 598. 897. <
-39 1 -6 62. 2092. 1196. <
41 1 6 295. 598. 897. <
-41 1 -6 315. 897. 1196. <
-46 2 6 26820. 20025. 1494. o
46 2 -6 27348. 21818. 1793. o
-44 2 6 9226. 9265. 1494. o
44 2 -6 8177. 8667. 2092. o
-42 2 6 1976. 1196. 1494. <
42 2 -6 1930. 1196. 1793. <
-40 2 6 9550. 3288. 1494. o
40 2 -6 6947. 3288. 1793. <
-38 2 6 37061. 45429. 1494. o
38 2 -6 33206. 46027. 1793. o
-36 2 6 4979. 3885. 1494. o
36 2 -6 4305. 598. 1793. <
-34 2 6 8536. 6575. 1494. o
34 2 -6 7752. 5978. 1793. o
-32 2 6 115571. 142265. 1793. o
32 2 -6 117706. 127620. 2092. o
-30 2 6 53928. 73822. 1494. o
30 2 -6 53346. 66948. 1793. o
-28 2 6 11924. 13150. 1196. o
28 2 -6 13180. 13748. 1494. o
-26 2 6 31327. 25703. 1196. o
26 2 -6 28273. 24508. 1494. o
-24 2 6 170969. 253147. 2391. o
24 2 -6 164284. 220271. 2092. o
-22 2 6 10822. 5978. 1494. o
22 2 -6 10510. 7472. 1494. o
-20 2 6 26537. 23013. 1196. o
20 2 -6 26986. 24209. 1196. o
-18 2 6 412281. 407068. 2391. o
18 2 -6 416552. 428288. 2690. o
-16 2 6 216383. 208914. 1793. o
16 2 -6 218426. 251653. 2092. o
-14 2 6 49306. 54694. 1196. o
14 2 -6 52934. 17932. 897. o
-12 2 6 76173. 60971. 1196. o
12 2 -6 73705. -1793. 897. <
-10 2 6 520569. 518549. 2092. o
10 2 -6 503299. 618971. 2690. o
-8 2 6 7402. 11955. 897. o
8 2 -6 7420. 17634. 1196. o
-6 2 6 48907. 49016. 1196. o
-4 2 6 619151. 611200. 2092. o
-2 2 6 353312. 368812. 1793. o
2 2 -6 350764. 310830. 2092. o
0 2 6 85222. 82788. 897. o
0 2 -6 88358. 77409. 1196. o
2 2 6 51981. 55890. 897. o
-2 2 -6 53019. 49613. 1196. o
4 2 6 435677. 528710. 1793. o
-4 2 -6 418873. 508387. 2690. o
6 2 6 12898. 14645. 897. o
-6 2 -6 11718. 16438. 1196. o
8 2 6 35087. 41544. 897. o
-8 2 -6 36781. 37359. 1494. o
10 2 6 281995. 298875. 1494. o
-10 2 -6 285527. 287518. 2391. o
12 2 6 179067. 202936. 1494. o
-12 2 -6 183441. 191878. 2092. o
14 2 6 39740. 40348. 897. o
-14 2 -6 39887. 34968. 1494. o
16 2 6 24670. 14645. 897. o
-16 2 -6 25657. 11357. 1494. o
18 2 6 116628. 141368. 1196. o
-18 2 -6 121053. 120746. 1793. o
20 2 6 5851. 3288. 897. o
-20 2 -6 4962. 3885. 1196. o
22 2 6 7915. 8966. 897. o
-22 2 -6 9071. 4782. 1196. o
24 2 6 63309. 62166. 897. o
-24 2 -6 64802. 37658. 1494. o
26 2 6 42284. 49912. 897. o
-26 2 -6 48130. 24508. 1494. o
28 2 6 5929. 6575. 598. o
-28 2 -6 5389. 2690. 1494. <
30 2 6 7071. 3288. 897. o
-30 2 -6 7072. 4483. 1793. o
32 2 6 17985. 22714. 897. o
-32 2 -6 21208. 26301. 1793. o
34 2 6 2483. -598. 897. <
-34 2 -6 1806. 1196. 1793. <
36 2 6 1189. 1196. 897. <
-36 2 -6 1710. 2989. 1494. <
38 2 6 10402. 8369. 897. o
-38 2 -6 10245. 13150. 1494. o
40 2 6 9003. 9265. 897. o
-40 2 -6 10426. 11656. 1494. o
-45 3 6 739. 897. 1196. <
45 3 -6 790. 0. 1793. <
-43 3 6 2719. 2690. 1196. o
43 3 -6 2653. 1793. 2092. <
-41 3 6 1989. 1196. 1494. <
41 3 -6 2174. 2391. 1793. <
-39 3 6 637. 897. 1494. <
39 3 -6 598. 897. 1793. <
-37 3 6 697. 1793. 1196. <
37 3 -6 700. 1793. 1793. <
-35 3 6 1838. 897. 1494. <
35 3 -6 1861. 2690. 1494. <
-33 3 6 1322. 1196. 1196. <
33 3 -6 1482. 598. 1494. <
-31 3 6 3785. 3586. 1494. o
31 3 -6 3910. 5081. 1793. o
-29 3 6 17899. 17036. 1196. o
29 3 -6 17577. 17335. 1494. o
-27 3 6 18863. 18530. 1196. o
27 3 -6 19655. 20025. 1793. o
-25 3 6 6149. 8667. 1494. o
25 3 -6 6066. 5679. 1196. o
-23 3 6 1507. 1793. 1494. <
23 3 -6 1451. 598. 1196. <
-21 3 6 13990. 18829. 1196. o
21 3 -6 13965. -598. 897. <
-19 3 6 1162. 2092. 1196. <
19 3 -6 1328. 2690. 1196. o
-17 3 6 8076. 5978. 1494. o
17 3 -6 8207. 6874. 1196. o
-15 3 6 20221. 16737. 1196. o
15 3 -6 20080. 15542. 1494. o
-13 3 6 29554. 26600. 1196. o
13 3 -6 30165. 28393. 1196. o
-11 3 6 13172. 5978. 1196. o
11 3 -6 13022. 7173. 1196. o
-9 3 6 2381. 1196. 1196. <
9 3 -6 2234. 897. 1196. <
-7 3 6 1645. 4782. 1494. o
7 3 -6 1626. 5081. 1196. o
-5 3 6 3089. 598. 1494. <
5 3 -6 2938. 1793. 598. o
-3 3 6 1300. 2391. 1494. <
3 3 -6 1298. 1793. 598. o
-1 3 6 3018. 1196. 1793. <
1 3 -6 2868. 299. 897. <
1 3 6 2515. 299. 1196. <
-1 3 -6 2609. 897. 1196. <
3 3 6 4681. 897. 897. <
-3 3 -6 4659. 897. 1196. <
5 3 6 2975. 2391. 897. o
-5 3 -6 2914. 2092. 1196. <
7 3 6 23087. 22714. 1196. o
-7 3 -6 22856. 23910. 1196. o
9 3 6 11445. 8667. 897. o
-9 3 -6 11452. 7173. 1196. o
11 3 6 3017. 2690. 598. o
-11 3 -6 3018. 1196. 1196. <
13 3 6 3496. 2989. 897. o
-13 3 -6 3264. 3288. 1196. o
15 3 6 11968. 9863. 897. o
-15 3 -6 11826. 6874. 1196. o
17 3 6 191. 299. 598. <
-17 3 -6 220. -1196. 1494. <
19 3 6 715. 299. 598. <
-19 3 -6 765. 1196. 1494. <
21 3 6 14820. 13150. 897. o
-21 3 -6 14464. 9265. 1494. o
23 3 6 6278. 7472. 897. o
-23 3 -6 6429. 3288. 1494. o
25 3 6 2092. 1494. 598. o
-25 3 -6 2065. 1793. 1494. <
27 3 6 1041. 1494. 598. o
-27 3 -6 964. 598. 1494. <
29 3 6 1490. 2391. 598. o
-29 3 -6 1443. 598. 1494. <
31 3 6 346. 897. 598. <
-31 3 -6 338. 1196. 1793. <
33 3 6 243. 299. 598. <
-33 3 -6 260. -897. 1793. <
35 3 6 2525. 1494. 598. o
-35 3 -6 2403. 1494. 1494. <
37 3 6 1403. 1196. 598. <
-37 3 -6 1507. 897. 1494. <
-42 4 6 2343. -299. 1494. <
42 4 -6 3015. 2391. 2391. <
-40 4 6 11213. 9564. 1494. o
40 4 -6 13095. 11058. 1793. o
-38 4 6 26630. 32278. 1494. o
38 4 -6 27279. 37658. 1793. o
-36 4 6 1190. 1793. 1494. <
36 4 -6 1430. 2989. 1494. <
-34 4 6 781. 2092. 1196. <
34 4 -6 1297. -2690. 1494. <
-32 4 6 56982. 62764. 1494. o
32 4 -6 61772. 897. 1494. <
-30 4 6 11331. 15542. 1196. o
30 4 -6 11034. 19726. 1793. o
-28 4 6 3926. 5978. 1196. o
28 4 -6 5307. 6276. 1793. o
-26 4 6 11434. 14346. 1494. o
26 4 -6 15892. 11955. 1494. o
-24 4 6 34848. 47820. 1494. o
24 4 -6 30748. 52602. 1793. o
-22 4 6 280. -299. 1494. <
22 4 -6 460. -897. 1494. <
-20 4 6 1025. 1494. 1494. <
20 4 -6 250. 2690. 1494. <
-18 4 6 37185. 42141. 1494. o
18 4 -6 41825. 41544. 1494. o
-16 4 6 6565. 11357. 1196. o
16 4 -6 6128. 12852. 1494. o
-14 4 6 507. 1793. 897. <
14 4 -6 1611. 2391. 1196. <
-12 4 6 1963. 1793. 897. <
12 4 -6 5672. 4483. 1196. o
-10 4 6 6281. 8966. 1196. o
10 4 -6 6705. 8667. 1196. o
-8 4 6 519. 3288. 1196. o
8 4 -6 872. 1793. 897. <
-6 4 6 2429. 2391. 1196. <
6 4 -6 933. 2092. 897. o
-4 4 6 11153. 8667. 1196. o
4 4 -6 16320. 8966. 897. o
-2 4 6 2341. 5978. 1196. o
2 4 -6 9511. 5380. 897. o
0 4 6 588. 1494. 1196. <
0 4 -6 165. 598. 598. <
2 4 6 795. 2391. 1196. <
-2 4 -6 1304. 1494. 1196. <
4 4 6 6260. 8667. 897. o
-4 4 -6 8352. 6575. 1196. o
6 4 6 2891. 3885. 897. o
-6 4 -6 4579. 4483. 1494. o
8 4 6 1452. 3586. 1196. o
-8 4 -6 993. 1793. 1494. <
10 4 6 18321. 13150. 1196. o
-10 4 -6 14924. 9564. 1196. o
12 4 6 19023. 23910. 897. o
-12 4 -6 20675. 12852. 1494. o
14 4 6 1144. 598. 897. <
-14 4 -6 516. 0. 1494. <
16 4 6 1541. -598. 598. <
-16 4 -6 1214. 598. 1793. <
18 4 6 25318. 26600. 897. o
-18 4 -6 19680. 11357. 1494. o
20 4 6 6187. 8369. 897. o
-20 4 -6 6924. 3586. 1494. o
22 4 6 4289. 5380. 897. o
-22 4 -6 4168. 3288. 1793. <
24 4 6 17691. 14346. 897. o
-24 4 -6 14316. 13748. 1793. o
26 4 6 23656. 31083. 897. o
-26 4 -6 21762. 25404. 1793. o
28 4 6 1342. 1196. 598. <
-28 4 -6 1235. 1793. 1793. <
30 4 6 1010. -299. 598. <
-30 4 -6 1139. 299. 1793. <
32 4 6 16062. 19128. 598. o
-32 4 -6 13503. 21220. 1494. o
34 4 6 4111. 5978. 598. o
-34 4 -6 4187. 4782. 1196. o
36 4 6 1827. 2690. 897. o
-36 4 -6 1925. 3586. 1196. o
-39 5 6 626. -299. 1196. <
39 5 -6 682. 1494. 1793. <
-37 5 6 1609. 598. 1196. <
37 5 -6 1600. 1196. 1494. <
-35 5 6 11045. 3586. 1494. o
35 5 -6 10696. 8966. 1494. o
-33 5 6 114. 1494. 1196. <
33 5 -6 119. -299. 1494. <
-31 5 6 827. 1494. 1494. <
31 5 -6 715. -2391. 1494. <
-29 5 6 4027. 3288. 1494. o
29 5 -6 4157. 4184. 1793. o
-27 5 6 3353. 2391. 1196. <
27 5 -6 2889. 5380. 1793. o
-25 5 6 1569. -299. 1196. <
25 5 -6 1705. 1494. 1494. <
-23 5 6 1971. 0. 1196. <
23 5 -6 1951. 897. 1494. <
-21 5 6 37560. 35566. 1494. o
21 5 -6 36946. 35267. 1494. o
-19 5 6 422. -1196. 1196. <
19 5 -6 426. 598. 1196. <
-17 5 6 1188. -598. 1196. <
17 5 -6 1083. -598. 1494. <
-15 5 6 4964. 5380. 1196. o
15 5 -6 5064. 5679. 1494. o
-13 5 6 2948. 2391. 1196. <
13 5 -6 2892. 3885. 1196. o
-11 5 6 687. 1196. 1196. <
11 5 -6 754. 1196. 897. <
-9 5 6 59. 299. 897. <
9 5 -6 76. 598. 897. <
-7 5 6 14933. 11357. 1196. o
7 5 -6 14659. 10162. 897. o
-5 5 6 1984. -299. 897. <
5 5 -6 2179. -299. 598. <
-3 5 6 231. 598. 1196. <
3 5 -6 206. 897. 897. <
-1 5 6 2425. 598. 897. <
1 5 -6 2616. 1196. 897. <
1 5 6 10739. 7472. 1196. o
-1 5 -6 11080. 7771. 897. o
3 5 6 172. -299. 897. <
-3 5 -6 200. 0. 1494. <
5 5 6 108. 897. 897. <
-5 5 -6 153. -598. 1494. <
7 5 6 6119. 1494. 897. <
-7 5 -6 6394. 1196. 1196. <
9 5 6 3300. 3586. 598. o
-9 5 -6 3249. 897. 1494. <
11 5 6 616. 598. 897. <
-11 5 -6 599. -2690. 1494. <
13 5 6 3235. 2690. 897. o
-13 5 -6 3591. 1196. 1494. <
15 5 6 19148. 19128. 897. o
-15 5 -6 19274. 5380. 1793. o
17 5 6 112. 299. 897. <
-17 5 -6 124. 1196. 1793. <
19 5 6 206. 1196. 598. <
-19 5 -6 155. -299. 1793. <
21 5 6 2578. 2092. 598. o
-21 5 -6 2899. 1196. 1793. <
23 5 6 1126. 897. 897. <
-23 5 -6 1071. -299. 1793. <
25 5 6 310. -598. 897. <
-25 5 -6 272. 1793. 1793. <
27 5 6 733. 1196. 598. <
-27 5 -6 904. 3586. 1793. <
29 5 6 4336. 3885. 598. o
-29 5 -6 4292. 4483. 1494. o
31 5 6 88. 598. 598. <
-31 5 -6 108. 299. 1196. <
33 5 6 55. 0. 598. <
-33 5 -6 47. 897. 1196. <
-36 6 6 1648. 2391. 1494. <
36 6 -6 1424. -598. 1494. <
-34 6 6 4097. -598. 1494. <
34 6 -6 3560. -897. 1494. <
-32 6 6 46018. 49016. 1793. o
32 6 -6 41142. 44532. 1793. o
-30 6 6 27728. 40049. 1793. o
30 6 -6 28619. 29290. 1793. o
-28 6 6 8526. 9265. 1494. o
28 6 -6 8793. 3586. 1494. o
-26 6 6 17467. 13748. 1793. o
26 6 -6 15072. 12254. 1494. o
-24 6 6 124022. 176038. 2092. o
24 6 -6 122998. 150035. 2092. o
-22 6 6 2736. 1793. 1494. <
22 6 -6 2763. 2092. 1494. <
-20 6 6 10869. 9265. 1494. o
20 6 -6 10936. 7771. 1494. o
-18 6 6 160507. 179923. 1793. o
18 6 -6 154176. 201143. 2092. o
-16 6 6 89631. 107595. 1494. o
16 6 -6 92481. 121343. 2092. o
-14 6 6 22220. 19726. 1196. o
14 6 -6 23154. 29589. 1494. o
-12 6 6 34077. 26899. 1196. o
12 6 -6 31620. 26301. 1196. o
-10 6 6 315032. 354167. 2092. o
10 6 -6 313056. 323383. 1793. o
-8 6 6 2049. 3288. 897. o
8 6 -6 1990. 5978. 897. o
-6 6 6 17387. 22117. 897. o
6 6 -6 17454. 18231. 897. o
-4 6 6 240943. 260918. 1494. o
4 6 -6 235543. 236709. 1494. o
-2 6 6 135544. 159898. 1494. o
2 6 -6 132912. 148242. 1196. o
0 6 6 25795. 26301. 897. o
0 6 -6 27457. 23611. 897. o
2 6 6 18177. 18530. 897. o
-2 6 -6 18021. 16438. 1196. o
4 6 6 259178. 302761. 1793. o
-4 6 -6 256812. 252550. 1793. o
6 6 6 8206. 5679. 897. o
-6 6 -6 7437. 2989. 1494. <
8 6 6 15398. 19128. 897. o
-8 6 -6 15596. 5380. 1793. o
10 6 6 113408. 137483. 1196. o
-10 6 -6 114729. 31980. 2092. o
12 6 6 64371. 86375. 1196. o
-12 6 -6 63211. 14346. 1793. o
14 6 6 12105. 10760. 897. o
-14 6 -6 13064. 2690. 1793. <
16 6 6 6709. 4782. 897. o
-16 6 -6 6885. 1494. 1793. <
18 6 6 76498. 91157. 1196. o
-18 6 -6 80281. 47820. 2092. o
20 6 6 4133. 2391. 897. o
-20 6 -6 4030. 1793. 2092. <
22 6 6 5278. 6276. 897. o
-22 6 -6 5392. 5380. 2092. o
24 6 6 27019. 29290. 897. o
-24 6 -6 28535. 32577. 2092. o
26 6 6 13607. 15243. 897. o
-26 6 -6 14762. 9564. 1793. o
28 6 6 2369. 2092. 897. o
-28 6 -6 2491. 0. 1494. <
-29 7 6 7197. 4483. 1494. o
29 7 -6 6968. 3288. 1494. o
-27 7 6 6041. 8070. 1494. o
27 7 -6 6763. 4782. 1196. o
-25 7 6 1746. 2092. 1196. <
25 7 -6 1652. 299. 1196. <
-23 7 6 457. 1793. 1196. <
23 7 -6 397. -1196. 1196. <
-21 7 6 7065. 8369. 1196. o
21 7 -6 7302. 10162. 1196. o
-19 7 6 871. 0. 1196. <
19 7 -6 1011. 299. 1196. <
-17 7 6 1636. 1494. 1196. <
17 7 -6 1689. 1793. 1196. <
-15 7 6 7173. 3586. 1196. o
15 7 -6 7027. 4184. 1196. o
-13 7 6 7050. 6575. 897. o
13 7 -6 7564. 5978. 1196. o
-11 7 6 2782. 299. 897. <
11 7 -6 2717. -598. 897. <
-9 7 6 529. -299. 897. <
9 7 -6 415. 299. 1196. <
-7 7 6 43. 598. 897. <
7 7 -6 59. 897. 1196. <
-5 7 6 2215. 598. 897. <
5 7 -6 2081. 299. 1196. <
-3 7 6 183. 598. 897. <
3 7 -6 183. 1793. 1196. <
-1 7 6 843. 299. 897. <
1 7 -6 732. 598. 897. <
1 7 6 297. 897. 897. <
-1 7 -6 263. -299. 897. <
3 7 6 939. 897. 897. <
-3 7 -6 874. -299. 1196. <
5 7 6 261. -598. 897. <
-5 7 -6 259. -598. 897. <
7 7 6 9714. 6874. 897. o
-7 7 -6 9286. 2391. 1793. <
9 7 6 1299. 1793. 897. <
-9 7 -6 1331. -598. 1793. <
11 7 6 602. 598. 897. <
-11 7 -6 623. -1793. 1793. <
13 7 6 1313. 1494. 897. <
-13 7 -6 1107. 1196. 1793. <
15 7 6 4596. 5081. 897. o
-15 7 -6 4468. 2989. 2092. <
17 7 6 226. 1196. 897. <
-17 7 -6 265. 1196. 1793. <
19 7 6 386. 299. 897. <
-19 7 -6 490. 598. 2092. <
21 7 6 6322. 5380. 897. o
-21 7 -6 5936. 4483. 2391. <
23 7 6 1278. 897. 897. <
-23 7 -6 1389. 1793. 2092. <
-22 8 6 201. -897. 1196. <
22 8 -6 186. 0. 1196. <
-20 8 6 223. -598. 1196. <
20 8 -6 210. 1494. 1196. <
-18 8 6 9491. 10461. 1196. o
18 8 -6 12055. 11357. 1196. o
-16 8 6 3372. 2989. 1196. o
16 8 -6 2076. 2690. 1196. o
-14 8 6 254. 1196. 897. <
14 8 -6 397. 299. 1196. <
-12 8 6 1723. 1494. 897. <
12 8 -6 3729. 299. 1196. <
-10 8 6 7231. 5978. 897. o
10 8 -6 9218. 7472. 1196. o
-8 8 6 27. -897. 897. <
8 8 -6 1. 598. 1196. <
-6 8 6 387. 1793. 897. <
6 8 -6 32. -598. 897. <
-4 8 6 3414. 4184. 897. o
4 8 -6 5078. 3885. 1196. o
-2 8 6 860. 2690. 897. o
2 8 -6 2469. 1793. 1196. <
0 8 6 542. 897. 897. <
0 8 -6 67. 1494. 1196. <
2 8 6 634. 0. 897. <
-2 8 -6 826. 1196. 1196. <
4 8 6 8102. 7173. 897. o
-4 8 -6 9717. 6276. 1196. o
6 8 6 594. 299. 897. <
-6 8 -6 1203. 1196. 1196. <
8 8 6 576. 1793. 897. <
-8 8 -6 310. 3288. 1793. <
10 8 6 7336. 2989. 897. o
-10 8 -6 5903. 897. 1793. <
12 8 6 4358. 5081. 897. o
-12 8 -6 4972. 1793. 2092. <
14 8 6 561. 0. 897. <
-14 8 -6 181. 2092. 2391. <
16 8 6 455. -598. 897. <
-16 8 -6 312. 897. 2391. <
-43 1 7 1411. 1494. 1494. <
43 1 -7 1583. 1793. 1793. <
-41 1 7 4159. 1494. 1196. <
41 1 -7 4091. 1494. 1494. <
-39 1 7 31137. 17634. 1196. o
39 1 -7 27222. 26301. 1793. o
-37 1 7 7055. 1793. 897. <
37 1 -7 7548. 2989. 1494. <
-35 1 7 7500. 2690. 1196. o
35 1 -7 7183. 4483. 1494. o
-33 1 7 50884. 41842. 1196. o
33 1 -7 53482. 47222. 1793. o
-31 1 7 60417. 40647. 1196. o
31 1 -7 60411. 42141. 1793. o
-29 1 7 5054. 5380. 897. o
29 1 -7 5730. 5380. 1196. o
-27 1 7 6868. 5679. 897. o
27 1 -7 7425. 6276. 1196. o
-25 1 7 84638. 88168. 1196. o
25 1 -7 75380. 87570. 1494. o
-23 1 7 18264. 9564. 897. o
23 1 -7 20025. 10760. 1196. o
-21 1 7 17057. 12852. 897. o
21 1 -7 16951. 11357. 1196. o
-19 1 7 97348. 104009. 1196. o
19 1 -7 98576. 86375. 1494. o
-17 1 7 152709. 133597. 1196. o
-15 1 7 10183. 12254. 598. o
-13 1 7 4416. 7472. 598. o
-11 1 7 143925. 172451. 897. o
-9 1 7 26913. 21220. 598. o
-7 1 7 20036. 18829. 598. o
-5 1 7 93556. 109089. 897. o
-3 1 7 200490. 181716. 897. o
-1 1 7 9640. 11656. 598. o
1 1 7 1770. 4782. 598. o
3 1 7 122079. 163784. 897. o
5 1 7 25652. 22117. 897. o
7 1 7 14540. 16737. 897. o
-7 1 -7 15184. 12852. 897. o
9 1 7 44416. 63362. 897. o
-9 1 -7 42667. 52602. 1196. o
11 1 7 126718. 134494. 897. o
-11 1 -7 131763. 119251. 1494. o
13 1 7 5145. 3586. 598. o
-13 1 -7 4955. 2092. 1196. <
15 1 7 3319. 1494. 598. o
-15 1 -7 2964. 2092. 897. o
17 1 7 50322. 68144. 897. o
-17 1 -7 50582. 63959. 1196. o
19 1 7 15633. 11955. 598. o
-19 1 -7 14150. 11058. 1196. o
21 1 7 5744. 6575. 897. o
-21 1 -7 6270. 7472. 1196. o
23 1 7 14040. 14645. 1196. o
-23 1 -7 12972. 13748. 1196. o
25 1 7 46108. 46326. 1196. o
-25 1 -7 48902. 36164. 1494. o
27 1 7 1371. 598. 897. <
-27 1 -7 1309. 897. 1196. <
29 1 7 3428. 897. 897. <
-29 1 -7 3195. 299. 1196. <
31 1 7 12803. 12852. 1196. o
-31 1 -7 13507. 12254. 1494. o
33 1 7 5488. 2989. 1196. o
-33 1 -7 4601. 4184. 897. o
35 1 7 1743. 897. 897. <
-35 1 -7 2128. 1196. 897. <
-42 2 7 627. -1196. 1494. <
42 2 -7 683. -1196. 1793. <
-40 2 7 91. 1494. 1494. <
40 2 -7 75. -897. 1793. <
-38 2 7 69. -598. 1494. <
38 2 -7 66. -897. 1793. <
-36 2 7 522. 1494. 1494. <
36 2 -7 505. -598. 1494. <
-34 2 7 577. -299. 1494. <
34 2 -7 658. -598. 1494. <
-32 2 7 241. 1196. 1494. <
32 2 -7 255. 1196. 1494. <
-30 2 7 466. 0. 1494. <
30 2 -7 444. 1494. 1494. <
-28 2 7 3960. 2690. 1196. o
28 2 -7 4100. 3288. 1494. o
-26 2 7 275. 598. 1196. <
26 2 -7 241. 598. 1196. <
-24 2 7 214. 299. 1196. <
24 2 -7 207. 2092. 1196. <
-22 2 7 971. 897. 897. <
22 2 -7 968. 897. 1196. <
-20 2 7 294. 299. 897. <
20 2 -7 363. 299. 1196. <
-18 2 7 235. 598. 897. <
18 2 -7 257. 1196. 1196. <
-16 2 7 122. 1196. 897. <
16 2 -7 128. 897. 897. <
-14 2 7 5815. 3586. 897. o
14 2 -7 5970. 5081. 897. o
-12 2 7 1474. 299. 897. <
-10 2 7 10. 598. 897. <
-8 2 7 176. 598. 598. <
-6 2 7 646. 598. 598. <
-4 2 7 623. 598. 598. <
-2 2 7 553. 598. 598. <
0 2 7 1591. 1196. 897. <
2 2 7 494. 598. 897. <
-2 2 -7 459. 897. 897. <
4 2 7 26. 897. 897. <
-4 2 -7 21. 299. 897. <
6 2 7 1686. 897. 897. <
-6 2 -7 1582. 1196. 897. <
8 2 7 2358. 3586. 598. o
-8 2 -7 2375. 2092. 897. o
10 2 7 423. 2092. 598. o
-10 2 -7 428. 1196. 897. <
12 2 7 315. 0. 897. <
-12 2 -7 304. -598. 897. <
14 2 7 1083. 1494. 897. <
-14 2 -7 1024. 598. 1196. <
16 2 7 115. 0. 598. <
-16 2 -7 121. 897. 1196. <
18 2 7 52. -299. 897. <
-18 2 -7 57. 897. 1196. <
20 2 7 794. 1196. 897. <
-20 2 -7 728. 1494. 1196. <
22 2 7 1393. 2690. 897. o
-22 2 -7 1433. 1494. 1196. <
24 2 7 183. 598. 897. <
-24 2 -7 174. 299. 1196. <
26 2 7 226. 1196. 897. <
-26 2 -7 231. 1196. 1196. <
28 2 7 69. 299. 897. <
-28 2 -7 52. 1196. 1494. <
30 2 7 236. 299. 598. <
-30 2 -7 228. -897. 1494. <
32 2 7 48. 598. 897. <
-32 2 -7 57. 897. 1494. <
34 2 7 202. 0. 897. <
-34 2 -7 170. 299. 1793. <
-41 3 7 3826. 2690. 1494. <
41 3 -7 4450. 3586. 1793. <
-39 3 7 27250. 25703. 1494. o
39 3 -7 27198. 26002. 1793. o
-37 3 7 3012. 1793. 1494. <
37 3 -7 3301. 897. 1494. <
-35 3 7 3720. 3288. 1196. o
35 3 -7 3890. 4184. 1494. o
-33 3 7 36956. 45130. 1494. o
33 3 -7 40578. 41544. 1793. o
-31 3 7 34404. 28991. 1196. o
31 3 -7 35579. 28393. 1793. o
-29 3 7 2543. 5679. 1494. o
29 3 -7 3892. 2989. 1196. o
-27 3 7 2722. 5380. 1196. o
27 3 -7 3810. 4483. 1494. o
-25 3 7 49405. 59775. 1494. o
25 3 -7 48694. 54694. 1494. o
-23 3 7 6544. 8966. 1494. o
23 3 -7 5899. 4782. 1494. o
-21 3 7 7945. 8369. 1196. o
21 3 -7 7400. 9265. 1196. o
-19 3 7 40240. 44234. 1494. o
19 3 -7 45845. -598. 897. <
-17 3 7 53534. 43935. 1196. o
17 3 -7 54073. 52901. 1494. o
-15 3 7 4759. 4782. 1196. o
15 3 -7 6443. 5679. 1196. o
-13 3 7 1205. 2391. 897. o
13 3 -7 2257. 4483. 1196. o
-11 3 7 41876. 41544. 1196. o
11 3 -7 42461. 50510. 1494. o
-9 3 7 8114. 7173. 897. o
9 3 -7 7724. 8070. 1196. o
-7 3 7 10089. 8369. 897. o
-5 3 7 28719. 28692. 897. o
-3 3 7 54940. 43337. 1196. o
3 3 -7 58967. 40647. 1196. o
-1 3 7 3353. 2989. 1196. o
1 3 -7 3380. 1494. 1196. <
1 3 7 2112. 2092. 897. o
-1 3 -7 2154. 1196. 897. <
3 3 7 37017. 34968. 1196. o
-3 3 -7 37462. 32278. 1196. o
5 3 7 11386. 9265. 897. o
-5 3 -7 12197. 8070. 897. o
7 3 7 8946. 8070. 897. o
-7 3 -7 7688. 6575. 1196. o
9 3 7 21379. 19128. 897. o
-9 3 -7 20305. 19427. 1196. o
11 3 7 51360. 43636. 897. o
-11 3 -7 52962. 39452. 1494. o
13 3 7 1071. 1494. 598. o
-13 3 -7 866. 897. 1196. <
15 3 7 1742. 2092. 897. o
-15 3 -7 1493. 598. 1196. <
17 3 7 29944. 32577. 897. o
-17 3 -7 27342. 23013. 1494. o
19 3 7 11034. 9564. 897. o
-19 3 -7 10760. 8070. 1196. o
21 3 7 4235. 4782. 897. o
-21 3 -7 4144. 2391. 1494. <
23 3 7 8530. 9265. 897. o
-23 3 -7 7712. 5679. 1494. o
25 3 7 31185. 34968. 897. o
-25 3 -7 30769. 16737. 1494. o
27 3 7 1060. 0. 598. <
-27 3 -7 957. 0. 1494. <
29 3 7 1792. 1196. 598. <
-29 3 -7 1674. 2690. 1494. <
31 3 7 11070. 11656. 897. o
-31 3 -7 10493. 10162. 1494. o
33 3 7 5463. 5081. 897. o
-33 3 -7 4994. 6575. 1793. o
-38 4 7 1026. -1196. 1494. <
38 4 -7 949. -299. 1793. <
-36 4 7 3589. 897. 1494. <
36 4 -7 3561. 1494. 1793. <
-34 4 7 677. -897. 1494. <
34 4 -7 541. -299. 1494. <
-32 4 7 206. 0. 1196. <
32 4 -7 184. -299. 1494. <
-30 4 7 2416. -598. 1196. <
30 4 -7 2447. 1494. 1196. <
-28 4 7 427. 1196. 1196. <
28 4 -7 326. 1494. 1494. <
-26 4 7 1271. -299. 1494. <
26 4 -7 1198. 1196. 1494. <
-24 4 7 2312. 1196. 1196. <
24 4 -7 2138. 1196. 1494. <
-22 4 7 9029. 8966. 1196. o
22 4 -7 8991. 8070. 1196. o
-20 4 7 2108. 897. 1196. <
20 4 -7 1812. 1494. 1494. <
-18 4 7 1104. -1196. 1196. <
18 4 -7 1044. 1494. 1196. <
-16 4 7 1356. 1196. 1196. <
16 4 -7 1372. 1196. 1196. <
-14 4 7 185. 897. 897. <
14 4 -7 217. 1793. 1196. <
-12 4 7 487. 299. 897. <
12 4 -7 421. 598. 1196. <
-10 4 7 1411. 0. 897. <
10 4 -7 1289. 0. 1196. <
-8 4 7 3065. 1793. 1196. <
8 4 -7 3043. 3288. 1196. o
-6 4 7 744. 598. 1196. <
6 4 -7 664. -299. 897. <
-4 4 7 1867. 1494. 1196. <
4 4 -7 1839. 598. 897. <
-2 4 7 876. 299. 1196. <
2 4 -7 967. 598. 1196. <
0 4 7 4638. 4184. 897. o
0 4 -7 4751. 2092. 897. o
2 4 7 305. 0. 897. <
-2 4 -7 332. 0. 1196. <
4 4 7 197. 299. 897. <
-4 4 -7 175. -897. 897. <
6 4 7 2173. 299. 1196. <
-6 4 -7 2353. 299. 1494. <
8 4 7 910. 2092. 1196. <
-8 4 -7 893. 598. 1196. <
10 4 7 139. 1494. 897. <
-10 4 -7 151. 598. 1196. <
12 4 7 881. -299. 897. <
-12 4 -7 955. 1494. 1494. <
14 4 7 5951. 5380. 897. o
-14 4 -7 6080. 3885. 1196. o
16 4 7 126. 897. 897. <
-16 4 -7 107. 897. 1196. <
18 4 7 281. 299. 598. <
-18 4 -7 257. 1196. 1494. <
20 4 7 393. 299. 897. <
-20 4 -7 500. 1196. 1494. <
22 4 7 553. 598. 897. <
-22 4 -7 588. 598. 1793. <
24 4 7 76. 299. 897. <
-24 4 -7 58. 299. 1793. <
26 4 7 319. 2391. 598. o
-26 4 -7 347. 299. 1494. <
28 4 7 1161. 897. 598. <
-28 4 -7 1202. 0. 1494. <
30 4 7 168. -299. 598. <
-30 4 -7 137. 1494. 1793. <
-35 5 7 4904. 1494. 1494. <
35 5 -7 4153. 4184. 1793. o
-33 5 7 32509. 35865. 1793. o
33 5 -7 28962. 31980. 2092. o
-31 5 7 38360. 33773. 1494. o
31 5 -7 38703. 34072. 1793. o
-29 5 7 3750. 4782. 1494. o
29 5 -7 3328. 4782. 1793. o
-27 5 7 6479. 8369. 1494. o
27 5 -7 5527. 3288. 1793. <
-25 5 7 96722. 117159. 1793. o
25 5 -7 92571. 120148. 2092. o
-23 5 7 13443. 11357. 1494. o
23 5 -7 14892. 9564. 1793. o
-21 5 7 13247. 14346. 1494. o
21 5 -7 12703. 10461. 1494. o
-19 5 7 87728. 83386. 1494. o
19 5 -7 81293. 107296. 2092. o
-17 5 7 112902. 118654. 1793. o
17 5 -7 115765. 125827. 1793. o
-15 5 7 5242. 9863. 1196. o
15 5 -7 4709. 13748. 1494. o
-13 5 7 8211. 8966. 897. o
13 5 -7 7615. 6874. 1494. o
-11 5 7 196726. 219972. 1793. o
11 5 -7 191266. 253147. 2092. o
-9 5 7 31279. 21519. 1196. o
9 5 -7 32848. 21818. 1196. o
-7 5 7 20419. 22117. 1196. o
7 5 -7 20996. 22117. 897. o
-5 5 7 97514. 107595. 1494. o
5 5 -7 91744. 112676. 1196. o
-3 5 7 160879. 166772. 1494. o
3 5 -7 159890. 155116. 1196. o
-1 5 7 4365. 8966. 1196. o
1 5 -7 4909. 6575. 1196. o
1 5 7 690. 3885. 1196. o
-1 5 -7 590. 1196. 1196. <
3 5 7 149875. 177532. 1196. o
-3 5 -7 148571. 118952. 2092. o
5 5 7 34114. 29589. 897. o
-5 5 -7 33422. 17932. 1196. o
7 5 7 18427. 20622. 897. o
-7 5 -7 19345. 11955. 1196. o
9 5 7 42330. 57683. 1196. o
-9 5 -7 41982. 24209. 1494. o
11 5 7 82524. 96836. 1196. o
-11 5 -7 82961. 43337. 1793. o
13 5 7 4748. 2092. 897. o
-13 5 -7 5076. 299. 1494. <
15 5 7 738. 897. 897. <
-15 5 -7 708. -598. 1494. <
17 5 7 50149. 60971. 897. o
-17 5 -7 52410. 24209. 1793. o
19 5 7 13942. 12852. 897. o
-19 5 -7 14181. 4782. 1793. o
21 5 7 5832. 3586. 897. o
-21 5 -7 6261. 2690. 1793. <
23 5 7 10972. 11058. 897. o
-23 5 -7 11499. 4483. 1793. o
25 5 7 23320. 28094. 897. o
-25 5 -7 24611. 17335. 1793. o
27 5 7 1565. 2092. 897. o
-27 5 -7 1485. 2391. 1793. <
-30 6 7 2548. 2092. 1494. <
30 6 -7 2429. 1494. 1793. <
-28 6 7 6533. 2690. 1494. <
28 6 -7 7075. 6575. 1793. o
-26 6 7 187. -598. 1494. <
26 6 -7 149. 2690. 1793. <
-24 6 7 876. 2391. 1494. <
24 6 -7 975. 2690. 1793. <
-22 6 7 2325. 1793. 1196. <
22 6 -7 2310. 3586. 1494. o
-20 6 7 1914. 1793. 1196. <
20 6 -7 2265. 3288. 1494. o
-18 6 7 580. 2092. 1196. <
18 6 -7 617. 1494. 1494. <
-16 6 7 984. 1196. 1196. <
16 6 -7 964. 1793. 1494. <
-14 6 7 6805. 5081. 897. o
14 6 -7 7205. 6575. 1494. o
-12 6 7 2422. -299. 1196. <
12 6 -7 2364. 1196. 1196. <
-10 6 7 282. -299. 897. <
10 6 -7 348. 0. 897. <
-8 6 7 290. 299. 897. <
8 6 -7 264. -897. 897. <
-6 6 7 1155. 598. 897. <
6 6 -7 1088. 299. 897. <
-4 6 7 1002. 1196. 897. <
4 6 -7 1030. 0. 897. <
-2 6 7 544. 0. 897. <
2 6 -7 481. 897. 897. <
0 6 7 844. 299. 1196. <
0 6 -7 853. 299. 897. <
2 6 7 1182. 598. 1196. <
-2 6 -7 1113. 897. 1494. <
4 6 7 148. 598. 897. <
-4 6 -7 177. 1196. 1494. <
6 6 7 4990. 3288. 897. o
-6 6 -7 4684. 2690. 1793. <
8 6 7 2237. 2092. 897. o
-8 6 -7 2216. 598. 1196. <
10 6 7 578. 897. 897. <
-10 6 -7 556. 1196. 1196. <
12 6 7 576. 299. 897. <
-12 6 -7 471. 897. 1494. <
14 6 7 2482. 2391. 897. o
-14 6 -7 2320. -1494. 1793. <
16 6 7 371. 0. 897. <
-16 6 -7 417. -1494. 1494. <
18 6 7 348. 299. 897. <
-18 6 -7 395. -299. 1793. <
20 6 7 2339. 897. 897. <
-20 6 -7 2102. 1196. 1793. <
22 6 7 1971. 1793. 897. <
-22 6 -7 2036. 1793. 1793. <
-23 7 7 2674. 897. 1494. <
23 7 -7 1321. 1793. 1494. <
-21 7 7 865. 2391. 1196. <
21 7 -7 768. 2989. 1494. <
-19 7 7 7898. 8070. 1196. o
19 7 -7 12200. 8966. 1494. o
-17 7 7 9265. 6276. 1196. o
17 7 -7 7816. 7771. 1494. o
-15 7 7 790. 1793. 1196. <
15 7 -7 1621. -598. 1494. <
-13 7 7 922. 598. 1196. <
13 7 -7 1541. 1793. 1196. <
-11 7 7 10296. 8966. 1196. o
11 7 -7 15084. 8966. 1196. o
-9 7 7 1913. 2391. 1196. <
9 7 -7 853. 1793. 897. <
-7 7 7 2127. 1196. 897. <
7 7 -7 1322. 2391. 897. o
-5 7 7 4117. 4483. 897. o
5 7 -7 7468. 3885. 897. o
-3 7 7 4976. 5081. 897. o
3 7 -7 5694. 2989. 897. o
-1 7 7 456. 1196. 897. <
1 7 -7 253. 897. 897. <
1 7 7 513. -299. 897. <
-1 7 -7 586. 0. 897. <
3 7 7 10383. 8966. 897. o
-3 7 -7 12120. 3885. 1494. o
5 7 7 1908. 2391. 897. o
-5 7 -7 2951. 1196. 1793. <
7 7 7 2880. 2989. 897. o
-7 7 -7 1781. 1196. 1494. <
9 7 7 5183. 4483. 897. o
-9 7 -7 4869. 1196. 1494. <
11 7 7 10060. 9265. 897. o
-11 7 -7 9507. 2092. 1494. <
13 7 7 228. 598. 897. <
-13 7 -7 31. 299. 1793. <
15 7 7 244. 598. 897. <
-15 7 -7 191. -897. 1793. <
17 7 7 13035. 9863. 897. o
-17 7 -7 11387. 3586. 1793. <
-12 8 7 438. 0. 897. <
12 8 -7 405. 1494. 1196. <
-10 8 7 295. 299. 897. <
10 8 -7 231. 1196. 1196. <
-8 8 7 1027. 1494. 1196. <
8 8 -7 1010. 299. 1196. <
-6 8 7 63. 0. 897. <
6 8 -7 72. 299. 1196. <
-4 8 7 1601. 897. 897. <
4 8 -7 1551. -299. 897. <
-2 8 7 481. 1494. 897. <
2 8 -7 581. -1196. 1196. <
0 8 7 1422. 299. 897. <
0 8 -7 1521. 1196. 1196. <
2 8 7 462. 1494. 897. <
-2 8 -7 509. 0. 1196. <
4 8 7 26. 598. 897. <
-4 8 -7 16. 1494. 1793. <
-38 0 8 14590. 10760. 1793. o
-36 0 8 4520. 897. 1196. <
-34 0 8 16722. 5380. 1196. o
-32 0 8 75499. 51108. 1494. o
-30 0 8 139. 299. 1196. <
-28 0 8 3257. 2391. 1196. <
-26 0 8 79096. 63959. 1196. o
-24 0 8 49104. 43038. 1196. o
-22 0 8 12445. 11955. 897. o
-20 0 8 36766. 22117. 1196. o
-18 0 8 233487. 215788. 1494. o
-16 0 8 626. 3586. 897. o
-14 0 8 5495. 6874. 598. o
-12 0 8 184115. 207121. 1793. o
-10 0 8 101741. 117458. 1494. o
-8 0 8 28436. 33175. 897. o
-6 0 8 32186. 28692. 897. o
-4 0 8 321269. 334740. 1494. o
-2 0 8 7661. 6874. 598. o
0 0 8 10984. 14645. 897. o
2 0 8 154177. 177532. 1793. o
4 0 8 82901. 88766. 1494. o
6 0 8 23853. 24508. 897. o
8 0 8 14371. 11357. 897. o
10 0 8 163074. 181118. 1494. o
12 0 8 6400. 1494. 897. <
14 0 8 9171. 5978. 897. o
16 0 8 55600. 48717. 1196. o
18 0 8 26104. 20025. 1494. o
20 0 8 7119. 5978. 1196. o
22 0 8 5077. 2391. 1494. <
24 0 8 41663. 38555. 1793. o
26 0 8 1832. 299. 1494. <
-26 0 -8 1896. 897. 1196. <
28 0 8 2789. 3586. 1494. o
-28 0 -8 2626. 1494. 1196. <
30 0 8 11288. 9564. 1793. o
-30 0 -8 12706. 3586. 1196. o
-39 1 8 220. 598. 1494. <
39 1 -8 231. 0. 1793. <
-37 1 8 1137. 299. 1196. <
37 1 -8 1127. 299. 1793. <
-35 1 8 1290. 598. 1196. <
35 1 -8 1342. 598. 1494. <
-33 1 8 589. 897. 897. <
33 1 -8 576. -598. 1494. <
-31 1 8 429. 598. 897. <
31 1 -8 431. 598. 1196. <
-29 1 8 8940. 5081. 897. o
29 1 -8 9011. 5679. 1196. o
-27 1 8 236. 299. 897. <
-25 1 8 1592. 1196. 897. <
-23 1 8 5794. 4483. 598. o
-21 1 8 4482. 3288. 897. o
-19 1 8 3105. 2391. 598. o
-17 1 8 4. -299. 598. <
-15 1 8 11255. 10760. 598. o
-13 1 8 2749. 897. 598. <
-11 1 8 2817. 1793. 598. o
-9 1 8 2519. 1793. 598. o
-7 1 8 928. 598. 598. <
-5 1 8 2993. 1196. 598. <
-3 1 8 510. 598. 598. <
-1 1 8 2066. 2092. 598. o
1 1 8 2056. 897. 598. <
3 1 8 97. 897. 598. <
5 1 8 2218. 1494. 598. o
7 1 8 6105. 6276. 598. o
9 1 8 40. 299. 598. <
11 1 8 115. 299. 598. <
13 1 8 5292. 4483. 598. o
15 1 8 1571. 897. 598. <
-15 1 -8 1582. -598. 897. <
17 1 8 440. 299. 598. <
-17 1 -8 441. 897. 897. <
19 1 8 1018. 598. 897. <
-19 1 -8 977. 1196. 1196. <
21 1 8 3813. 3288. 897. o
-21 1 -8 3810. 2391. 1196. <
23 1 8 45. -897. 897. <
-23 1 -8 43. -598. 897. <
25 1 8 91. 598. 897. <
-25 1 -8 97. 598. 1196. <
27 1 8 1284. 0. 897. <
-27 1 -8 1256. -598. 1196. <
29 1 8 185. 897. 897. <
-29 1 -8 192. -1793. 1196. <
-38 2 8 6237. 3885. 1494. o
38 2 -8 6798. 4483. 1494. o
-36 2 8 3929. 897. 1494. <
36 2 -8 3847. 3885. 1494. o
-34 2 8 15670. 10461. 1494. o
34 2 -8 17541. 9564. 1494. o
-32 2 8 40324. 40946. 1494. o
32 2 -8 41684. 33175. 1793. o
-30 2 8 788. 598. 1494. <
30 2 -8 1298. 1494. 1494. <
-28 2 8 76. 0. 1494. <
28 2 -8 443. 598. 1494. <
-26 2 8 31238. 23611. 1494. o
26 2 -8 29028. 25106. 1494. o
-24 2 8 8064. 9564. 897. o
24 2 -8 7506. 10461. 1494. o
-22 2 8 5065. 2092. 897. o
22 2 -8 4021. 4184. 1196. o
-20 2 8 8958. 4483. 897. o
-18 2 8 34544. 34371. 897. o
-16 2 8 467. 299. 897. <
-14 2 8 718. 299. 598. <
-12 2 8 11399. 9564. 598. o
-10 2 8 5046. 9564. 598. o
-8 2 8 2328. 1196. 598. <
-6 2 8 2676. 897. 598. <
-4 2 8 20801. 25703. 598. o
-2 2 8 374. 1494. 598. o
0 2 8 648. 897. 598. <
2 2 8 8064. 5978. 598. o
4 2 8 8337. 12852. 897. o
6 2 8 568. 598. 897. <
8 2 8 1472. 1196. 897. <
-8 2 -8 634. 598. 897. <
10 2 8 28342. 33474. 897. o
-10 2 -8 29002. 25106. 1196. o
12 2 8 1945. 2690. 897. o
-12 2 -8 2752. 0. 897. <
14 2 8 1500. 2092. 897. o
-14 2 -8 998. 1494. 897. <
16 2 8 10007. 7173. 897. o
-16 2 -8 8158. 5081. 1196. o
18 2 8 15497. 17335. 897. o
-18 2 -8 13241. 12553. 1196. o
20 2 8 697. -598. 897. <
-20 2 -8 810. 897. 1196. <
22 2 8 620. 598. 897. <
-22 2 -8 488. -1196. 1196. <
24 2 8 23249. 26600. 897. o
-24 2 -8 20885. 15542. 1196. o
26 2 8 2809. 2989. 897. o
-26 2 -8 3175. 2092. 1196. <
28 2 8 2308. 1793. 897. <
-28 2 -8 2066. -897. 1196. <
-35 3 8 2021. 2092. 1196. <
35 3 -8 1830. 1196. 1494. <
-33 3 8 866. 0. 1196. <
33 3 -8 905. -299. 1494. <
-31 3 8 1067. 0. 1494. <
31 3 -8 1085. 1196. 1494. <
-29 3 8 3621. 2690. 1196. o
29 3 -8 3537. 3885. 1196. o
-27 3 8 402. 2391. 1494. <
27 3 -8 345. 598. 1494. <
-25 3 8 2234. 1793. 1196. <
25 3 -8 2133. 1196. 1196. <
-23 3 8 7579. 5081. 1196. o
23 3 -8 7663. 7472. 1196. o
-21 3 8 6405. 6874. 1196. o
21 3 -8 6128. 3885. 1196. o
-19 3 8 4137. 2092. 897. o
19 3 -8 4227. 6276. 1196. o
-17 3 8 552. 0. 1196. <
17 3 -8 601. -2690. 897. <
-15 3 8 4618. 5081. 897. o
15 3 -8 4557. 5978. 1196. o
-13 3 8 825. 299. 897. <
-11 3 8 1877. 598. 897. <
-9 3 8 2885. 1196. 598. <
-7 3 8 680. 598. 598. <
-5 3 8 4718. 897. 598. <
-3 3 8 1611. 299. 897. <
-1 3 8 1134. 1196. 897. <
1 3 8 2539. 2989. 897. o
3 3 8 92. 0. 897. <
-3 3 -8 82. 598. 897. <
5 3 8 1938. 299. 897. <
-5 3 -8 2035. 1793. 897. <
7 3 8 4093. 2690. 897. o
-7 3 -8 4147. 1494. 1196. <
9 3 8 251. 1494. 897. <
-9 3 -8 256. 299. 897. <
11 3 8 569. 1494. 598. o
-11 3 -8 579. 1494. 897. <
13 3 8 5538. 4184. 897. o
-13 3 -8 5715. 3288. 1196. o
15 3 8 2051. 2092. 897. o
-15 3 -8 1996. 2391. 1196. <
17 3 8 827. 299. 897. <
-17 3 -8 817. 0. 1196. <
19 3 8 522. 598. 897. <
-19 3 -8 604. 299. 1196. <
21 3 8 2011. 1793. 897. <
-21 3 -8 2059. 897. 1196. <
23 3 8 35. -299. 897. <
-23 3 -8 36. 0. 1494. <
25 3 8 133. 897. 897. <
-25 3 -8 124. 2092. 1494. <
27 3 8 1374. 897. 897. <
-27 3 -8 1465. 0. 1793. <
-32 4 8 50872. 49314. 1494. o
32 4 -8 51551. 46027. 1793. o
-30 4 8 1061. -299. 1196. <
30 4 -8 842. 1196. 1494. <
-28 4 8 4908. 4184. 1196. o
28 4 -8 4685. 3288. 1494. o
-26 4 8 67720. 71132. 1494. o
26 4 -8 65084. -1196. 1196. <
-24 4 8 40696. 47820. 1494. o
24 4 -8 41944. 31681. 1494. o
-22 4 8 12212. 12254. 1196. o
22 4 -8 11930. 14047. 1196. o
-20 4 8 32788. 24508. 1196. o
20 4 -8 30109. 20622. 1494. o
-18 4 8 160294. 161094. 1793. o
18 4 -8 161728. 176934. 1793. o
-16 4 8 512. 2690. 897. o
16 4 -8 463. 1793. 1494. <
-14 4 8 7093. 6276. 897. o
14 4 -8 7656. 8369. 1196. o
-12 4 8 151184. 135988. 1196. o
12 4 -8 147082. 148840. 1793. o
-10 4 8 88537. 81892. 1196. o
-8 4 8 24108. 20025. 897. o
-6 4 8 29320. 23013. 897. o
-4 4 8 222906. 241491. 1494. o
-2 4 8 3778. 3288. 897. o
2 4 -8 3252. 4184. 897. o
0 4 8 7197. 9265. 897. o
0 4 -8 7558. 2690. 1196. o
2 4 8 120532. 116262. 1196. o
-2 4 -8 119330. 83087. 1494. o
4 4 8 70337. 68144. 1196. o
-4 4 -8 67770. 45130. 1494. o
6 4 8 18925. 13449. 897. o
-6 4 -8 19552. 10162. 1196. o
8 4 8 11132. 8966. 897. o
-8 4 -8 11350. 5380. 1196. o
10 4 8 112746. 111480. 1196. o
-10 4 -8 114315. 85180. 1793. o
12 4 8 5011. 1494. 897. <
-12 4 -8 4041. 1793. 1196. <
14 4 8 4421. 2690. 897. o
-14 4 -8 4532. 2690. 1196. o
16 4 8 40203. 35566. 897. o
-16 4 -8 42446. 18829. 1793. o
18 4 8 23407. 22117. 897. o
-18 4 -8 24142. 15243. 1494. o
20 4 8 5563. 4483. 897. o
-20 4 -8 5697. 2690. 1494. <
22 4 8 3981. 2092. 897. o
-22 4 -8 3933. 2391. 1793. <
24 4 8 27520. 31980. 897. o
-24 4 -8 29945. 12254. 1793. o
-29 5 8 9528. 5081. 1196. o
29 5 -8 9815. 9265. 1793. o
-27 5 8 206. 1196. 1196. <
27 5 -8 205. -897. 1494. <
-25 5 8 952. 299. 1196. <
25 5 -8 1056. 2690. 1494. <
-23 5 8 4025. 3885. 1494. o
23 5 -8 3949. 1793. 1494. <
-21 5 8 3776. 4782. 1196. o
21 5 -8 4005. 4782. 1494. o
-19 5 8 1391. -598. 1196. <
19 5 -8 1313. 897. 1494. <
-17 5 8 115. 1196. 1196. <
17 5 -8 143. -299. 1494. <
-15 5 8 9747. 6276. 1196. o
15 5 -8 9985. 9564. 1494. o
-13 5 8 2508. 299. 897. <
13 5 -8 2375. -598. 1494. <
-11 5 8 896. 897. 897. <
11 5 -8 954. 1494. 1494. <
-9 5 8 996. 897. 897. <
9 5 -8 950. 2391. 1196. <
-7 5 8 1120. 598. 897. <
-5 5 8 1398. 1196. 897. <
5 5 -8 1361. 299. 897. <
-3 5 8 379. 299. 897. <
3 5 -8 333. 598. 1196. <
-1 5 8 1512. 897. 897. <
1 5 -8 1487. 598. 1196. <
1 5 8 1284. -299. 897. <
-1 5 -8 1200. 598. 1196. <
3 5 8 139. -299. 897. <
-3 5 -8 152. 299. 1196. <
5 5 8 2291. 1196. 897. <
-5 5 -8 2112. 897. 1196. <
7 5 8 5324. 3885. 897. o
-7 5 -8 5267. 1494. 1494. <
9 5 8 59. 299. 897. <
-9 5 -8 56. 1494. 1494. <
11 5 8 24. 2092. 897. o
-11 5 -8 29. -1196. 1196. <
13 5 8 3844. 3288. 897. o
-13 5 -8 3606. 1793. 1196. <
15 5 8 1156. 1793. 897. <
-15 5 -8 1208. -1494. 1494. <
17 5 8 429. 0. 897. <
-17 5 -8 446. 897. 1494. <
19 5 8 950. 0. 897. <
-19 5 -8 807. 598. 1494. <
21 5 8 3765. 3586. 897. o
-21 5 -8 3753. 2391. 1793. <
-22 6 8 1153. 897. 1196. <
22 6 -8 1119. 3586. 1793. <
-20 6 8 3810. 3586. 1196. o
20 6 -8 6211. -897. 1494. <
-18 6 8 8446. 8369. 1196. o
18 6 -8 8417. 14645. 1494. o
-16 6 8 233. 299. 1196. <
16 6 -8 214. 897. 1494. <
-14 6 8 427. 299. 1196. <
14 6 -8 168. 1494. 1494. <
-12 6 8 3850. 3288. 897. o
12 6 -8 8239. 4483. 1196. o
-10 6 8 2191. 4184. 897. o
10 6 -8 2080. 3885. 1196. o
-8 6 8 986. 598. 897. <
8 6 -8 392. -897. 1196. <
-6 6 8 1091. 299. 897. <
6 6 -8 2560. 598. 897. <
-4 6 8 3352. 4483. 897. o
4 6 -8 6106. 1793. 1196. <
-2 6 8 196. 897. 897. <
2 6 -8 435. 897. 1196. <
0 6 8 397. 0. 897. <
0 6 -8 53. -897. 1494. <
2 6 8 3086. 1494. 897. <
-2 6 -8 4248. 598. 1494. <
4 6 8 3888. 6575. 897. o
-4 6 -8 5840. 2989. 1196. o
6 6 8 980. 299. 897. <
-6 6 -8 193. 1494. 1494. <
8 6 8 768. 897. 897. <
-8 6 -8 671. 0. 1494. <
10 6 8 9658. 9564. 897. o
-10 6 -8 8670. 6874. 1494. o
12 6 8 364. 299. 897. <
-12 6 -8 791. 598. 1494. <
14 6 8 533. -299. 897. <
-14 6 -8 266. -897. 1793. <
-11 7 8 431. -299. 1196. <
11 7 -8 371. 299. 1494. <
-9 7 8 1473. 1494. 1196. <
9 7 -8 1520. 897. 1196. <
-7 7 8 60. 299. 897. <
7 7 -8 42. 0. 897. <
-5 7 8 1618. 897. 897. <
5 7 -8 1655. -598. 897. <
-3 7 8 360. 897. 897. <
3 7 -8 414. -598. 1196. <
-1 7 8 1495. 0. 897. <
1 7 -8 1583. 897. 1494. <
1 7 8 668. 897. 897. <
-1 7 -8 740. 897. 1494. <
3 7 8 121. -299. 897. <
-3 7 -8 107. 299. 1494. <
-31 1 9 1625. 598. 897. <
-29 1 9 1951. 1196. 598. <
-27 1 9 24647. 19427. 897. o
-25 1 9 27633. 20324. 897. o
-23 1 9 2313. 2092. 897. o
-21 1 9 2824. 2092. 897. o
-19 1 9 66082. 59177. 897. o
-17 1 9 4130. 2690. 598. o
-15 1 9 3647. 2690. 598. o
-13 1 9 25296. 28094. 897. o
-11 1 9 36426. 34072. 598. o
-9 1 9 1505. 1793. 598. o
-7 1 9 413. 598. 598. <
-5 1 9 65180. 63959. 598. o
-3 1 9 7098. 3885. 598. o
-1 1 9 4453. 2690. 598. o
1 1 9 18472. 18231. 598. o
3 1 9 34224. 35566. 598. o
5 1 9 860. 2092. 598. o
7 1 9 199. 299. 598. <
9 1 9 42069. 45728. 897. o
11 1 9 7649. 4483. 598. o
13 1 9 3494. 1793. 598. o
15 1 9 9157. 8966. 598. o
17 1 9 20491. 22714. 897. o
19 1 9 1252. 598. 897. <
21 1 9 683. 299. 897. <
23 1 9 17411. 17634. 897. o
-30 2 9 364. 299. 1196. <
-28 2 9 305. 1793. 1196. <
-26 2 9 118. 299. 1196. <
-24 2 9 398. 299. 897. <
-22 2 9 1129. 299. 897. <
-20 2 9 169. -299. 897. <
-18 2 9 104. 0. 598. <
-16 2 9 271. -299. 598. <
-14 2 9 2. 598. 598. <
-12 2 9 204. -299. 598. <
-10 2 9 3. 299. 598. <
-8 2 9 440. 299. 598. <
-6 2 9 429. 897. 598. <
-4 2 9 4. 299. 598. <
-2 2 9 311. 1196. 598. <
0 2 9 334. 299. 598. <
2 2 9 51. 598. 598. <
4 2 9 65. 0. 598. <
6 2 9 685. 598. 598. <
8 2 9 38. 598. 598. <
10 2 9 16. 598. 897. <
12 2 9 416. 598. 897. <
14 2 9 311. 598. 897. <
-14 2 -9 303. 299. 1196. <
16 2 9 53. 598. 897. <
-16 2 -9 55. 897. 1196. <
18 2 9 3. 598. 897. <
-18 2 -9 7. -1196. 1196. <
20 2 9 178. 299. 897. <
-20 2 -9 197. 1793. 1196. <
22 2 9 14. 2092. 897. o
-22 2 -9 14. 2690. 1196. o
-29 3 9 3049. 2391. 1494. <
29 3 -9 3004. 598. 1196. <
-27 3 9 32047. 31382. 1494. o
27 3 -9 29818. 25404. 1494. o
-25 3 9 39842. 37658. 1793. o
25 3 -9 40120. 31681. 1494. o
-23 3 9 3955. 3288. 1196. o
-21 3 9 7143. 2989. 1196. o
-19 3 9 94723. 80696. 1494. o
-17 3 9 7505. 2690. 897. o
-15 3 9 5426. 4483. 897. o
-13 3 9 49460. 40946. 897. o
-11 3 9 70907. 52901. 897. o
-9 3 9 2681. 5978. 598. o
-7 3 9 2558. 2092. 598. o
-5 3 9 111072. 104307. 897. o
-3 3 9 11267. 4782. 598. o
-1 3 9 7106. 6276. 897. o
1 3 9 32001. 32876. 897. o
3 3 9 59164. 53200. 1196. o
5 3 9 3436. 2391. 897. o
7 3 9 177. 1494. 897. <
-7 3 -9 207. 598. 897. <
9 3 9 58794. 59476. 1196. o
-9 3 -9 59895. 54096. 1196. o
11 3 9 9321. 3586. 897. o
-11 3 -9 8988. 3586. 1196. o
13 3 9 4802. 3288. 897. o
-13 3 -9 5085. 2092. 1196. <
15 3 9 12698. 11058. 897. o
-15 3 -9 13180. 5978. 1196. o
17 3 9 23735. 23312. 897. o
-17 3 -9 24204. 21519. 1196. o
19 3 9 2108. 1494. 897. <
-19 3 -9 2128. 1793. 1196. <
-24 4 9 951. 1494. 1196. <
24 4 -9 933. 1196. 1494. <
-22 4 9 1145. 0. 1196. <
22 4 -9 1230. -897. 1196. <
-20 4 9 43. -897. 1196. <
20 4 -9 45. 299. 1196. <
-18 4 9 786. 897. 1196. <
18 4 -9 883. 299. 1196. <
-16 4 9 1760. 897. 897. <
-14 4 9 688. 897. 897. <
-12 4 9 1251. 1494. 598. o
-10 4 9 98. 598. 598. <
-8 4 9 64. 299. 598. <
-6 4 9 661. 299. 598. <
-4 4 9 279. 299. 598. <
-2 4 9 963. -598. 598. <
0 4 9 61. 1494. 897. <
2 4 9 555. 598. 1196. <
4 4 9 612. 0. 897. <
-4 4 -9 550. 299. 1196. <
6 4 9 1929. 1494. 897. <
-6 4 -9 1866. 897. 897. <
8 4 9 18. 1196. 897. <
-8 4 -9 16. -897. 1196. <
10 4 9 63. 598. 897. <
-10 4 -9 73. 1494. 1196. <
12 4 9 1078. 299. 897. <
-12 4 -9 979. 1494. 1196. <
14 4 9 647. 1196. 897. <
-14 4 -9 646. 299. 1196. <
16 4 9 79. 1196. 897. <
-16 4 -9 76. -598. 1196. <
-19 5 9 15895. 17932. 1196. o
19 5 -9 18419. 20622. 1494. o
-17 5 9 1551. 0. 1196. <
17 5 -9 606. 1494. 1793. <
-15 5 9 984. 299. 897. <
15 5 -9 695. 1494. 1494. <
-13 5 9 4577. 5081. 897. o
-11 5 9 8983. 7173. 897. o
-9 5 9 673. 299. 598. <
-7 5 9 544. 0. 598. <
-5 5 9 11744. 11955. 897. o
-3 5 9 1143. 1494. 897. <
-1 5 9 1181. 0. 897. <
1 5 9 3545. 3288. 897. o
-1 5 -9 4906. 1196. 1196. <
3 5 9 10042. 5380. 897. o
-3 5 -9 10752. 2690. 1196. o
5 5 9 248. -299. 897. <
-5 5 -9 32. 598. 1196. <
7 5 9 379. 0. 897. <
-7 5 -9 405. 299. 1494. <
9 5 9 12647. 12553. 897. o
-9 5 -9 11904. 8369. 1196. o
-22 0 10 375. 299. 1196. <
-20 0 10 23610. 12254. 1196. o
-18 0 10 5330. 4483. 1196. o
-16 0 10 1640. 598. 897. <
-14 0 10 4993. 2391. 897. o
-12 0 10 15731. 17036. 1196. o
-10 0 10 371. 299. 897. <
-8 0 10 35. 0. 897. <
-6 0 10 14252. 9564. 897. o
-4 0 10 6922. 6575. 897. o
-2 0 10 390. 598. 897. <
0 0 10 2456. 598. 897. <
2 0 10 13471. 13748. 897. o
4 0 10 807. 1494. 897. <
6 0 10 142. 1494. 897. <
8 0 10 9654. 7771. 897. o
10 0 10 8868. 8369. 897. o
12 0 10 528. 0. 897. <
-21 1 10 438. 299. 598. <
-19 1 10 729. 897. 897. <
-17 1 10 1391. 1196. 598. <
-15 1 10 635. 598. 598. <
-13 1 10 1583. 897. 598. <
-11 1 10 132. 299. 598. <
-9 1 10 764. 1196. 598. <
-7 1 10 1166. 598. 598. <
-5 1 10 326. 897. 598. <
-3 1 10 852. 897. 598. <
-1 1 10 381. 1196. 598. <
1 1 10 396. 299. 598. <
3 1 10 211. 598. 598. <
5 1 10 1002. 598. 598. <
7 1 10 390. 598. 598. <
9 1 10 49. -598. 598. <
11 1 10 433. 1196. 598. <
-20 2 10 60000. 37658. 897. o
-18 2 10 26108. 17335. 598. o
-16 2 10 6592. 4782. 598. o
-14 2 10 15209. 6575. 897. o
-12 2 10 82266. 61269. 897. o
-10 2 10 301. 1196. 598. <
-8 2 10 3204. 2989. 598. o
-6 2 10 71647. 52303. 897. o
-4 2 10 31960. 19427. 897. o
-2 2 10 10643. 7173. 598. o
0 2 10 9744. 6575. 897. o
2 2 10 65673. 51407. 897. o
4 2 10 2700. 897. 598. <
6 2 10 3112. 2989. 598. o
8 2 10 39084. 28991. 897. o
10 2 10 18398. 9265. 598. o
-15 3 10 922. 598. 897. <
-13 3 10 2189. 598. 897. <
-11 3 10 299. 0. 897. <
-9 3 10 315. 0. 598. <
-7 3 10 1099. 299. 598. <
-5 3 10 304. 299. 598. <
-3 3 10 744. -299. 897. <
-1 3 10 228. -598. 598. <
1 3 10 619. 0. 897. <
3 3 10 278. 299. 598. <
5 3 10 1165. 598. 598. <
loop_
_restr_distance_atom_site_label_1
_restr_distance_atom_site_label_2
_restr_distance_target
_restr_distance_target_weight_param
C1 N1 1.5 0.001
C2 N2 1.5 0.001
N3 C3 1.5 0.001
C3 C4 1.5 0.001
C4 C5 1.33 0.001
C5 N4 1.33 0.001
N4 C6 1.33 0.001
C6 C7 1.33 0.001
C7 C8 1.33 0.001
C8 C4 1.33 0.001
loop_
_restr_angle_atom_site_label_1
_restr_angle_atom_site_label_2
_restr_angle_atom_site_label_3
_restr_angle_target
_restr_angle_target_weight_param
N3 C3 C4 109.47 0.01
C3 C4 C5 120 0.01
C3 C4 C8 120 0.01
C4 C5 N4 120 0.01
C5 N4 C6 120 0.01
N4 C6 C7 120 0.01
C6 C7 C8 120 0.01
C7 C8 C4 120 0.01
C8 C4 C5 120 0.01
loop_
_restr_torsion_atom_site_label_1
_restr_torsion_atom_site_label_2
_restr_torsion_atom_site_label_3
_restr_torsion_atom_site_label_4
_restr_torsion_angle_target
_restr_torsion_weight_param
C5 C4 C3 C8 180 0.01
C4 C5 N4 C6 0 0.01
C5 N4 C6 C7 0 0.01
N4 C6 C7 C8 0 0.01
C6 C7 C8 C4 0 0.01
C7 C8 C4 C5 0 0.01
C8 C4 C5 N4 0 0.01
