#------------------------------------------------------------------------------
#$Date: 2021-03-29 09:55:59 +0300 (Mon, 29 Mar 2021) $
#$Revision: 263400 $
#$URL: file:///home/coder/svn-repositories/cod/cif/1/56/13/1561314.cif $
#------------------------------------------------------------------------------
#
# This file is available in the Crystallography Open Database (COD),
# http://www.crystallography.net/
#
# All data on this site have been placed in the public domain by the
# contributors.
#
data_1561314
loop_
_publ_author_name
'Lin, Jian-Di'
'Rong, Cheng'
'Lv, Ri-Xin'
'Wang, Zu-Jian'
'Long, Xi-Fa'
'Guo, Guo-Cong'
'Pan, Chun-Yang'
_publ_section_title
;
 A 3D metal-organic framework with a pcu net constructed from lead(II) and
 thiophene-2, 5-dicarboxylic acid: Synthesis, structure and ferroelectric
 property
;
_journal_name_full               'Journal of Solid State Chemistry'
_journal_page_first              34
_journal_page_last               39
_journal_paper_doi               10.1016/j.jssc.2017.09.001
_journal_volume                  257
_journal_year                    2018
_chemical_formula_moiety         'C6 H2 O4 Pb S'
_chemical_formula_sum            'C6 H2 O4 Pb S'
_chemical_formula_weight         377.34
_space_group_crystal_system      orthorhombic
_space_group_IT_number           26
_space_group_name_Hall           'P 2c -2'
_space_group_name_H-M_alt        'P m c 21'
_atom_sites_solution_hydrogens   mixed
_atom_sites_solution_primary     direct
_audit_update_record
;
????
;
_cell_angle_alpha                90
_cell_angle_beta                 90
_cell_angle_gamma                90
_cell_formula_units_Z            4
_cell_length_a                   17.990(5)
_cell_length_b                   5.6720(15)
_cell_length_c                   6.8519(17)
_cell_measurement_reflns_used    2016
_cell_measurement_temperature    293.1500
_cell_measurement_theta_max      27.4895
_cell_measurement_theta_min      2.9730
_cell_volume                     699.2(3)
_computing_cell_refinement       'CrystalClear (Rigaku Inc., 2008)'
_computing_data_collection       'CrystalClear (Rigaku Inc., 2008)'
_computing_data_reduction        'CrystalClear (Rigaku Inc., 2008)'
_computing_molecular_graphics    'Olex2 (Dolomanov et al., 2009)'
_computing_publication_material  'Olex2 (Dolomanov et al., 2009)'
_computing_structure_refinement  'XL (Sheldrick, 2008)'
_computing_structure_solution    'SIR2004 (Burla et al., 2007)'
_diffrn_ambient_temperature      293.1500
_diffrn_detector_area_resol_mean 14.6306
_diffrn_measured_fraction_theta_full 0.961
_diffrn_measured_fraction_theta_max 0.959
_diffrn_measurement_details
;
scan:
	Number of images: 360
	           Slice: -62.0000 - 118.0000
	     Image width: 0.5000
	        Exp time: 10.0000
	   Rotation axis: Omega
	           Omega: 0.0000
	             Chi: 45.0000
	             Phi: 180.0000
	             XTD: 50.2908
	          2theta: 27.7862
scan:
	Number of images: 280
	           Slice: -62.0000 - 78.0000
	     Image width: 0.5000
	        Exp time: 10.0000
	   Rotation axis: Omega
	           Omega: 0.0000
	             Chi: 45.0000
	             Phi: 90.0000
	             XTD: 50.2908
	          2theta: 27.7862
scan:
	Number of images: 160
	           Slice: -62.0000 - 18.0000
	     Image width: 0.5000
	        Exp time: 10.0000
	   Rotation axis: Omega
	           Omega: 0.0000
	             Chi: 45.0000
	             Phi: 0.0000
	             XTD: 50.2908
	          2theta: 27.7862
;
_diffrn_measurement_device
;
Mercury70 (2x2 bin mode)
;
_diffrn_measurement_device_details
;
AFC8: Eulerian 3 circle
;
_diffrn_measurement_device_type  'Bruker P4'
_diffrn_orient_matrix_type       d*Trek
_diffrn_orient_matrix_UB_11      0.0924
_diffrn_orient_matrix_UB_12      0.1319
_diffrn_orient_matrix_UB_13      -0.0717
_diffrn_orient_matrix_UB_21      -0.1222
_diffrn_orient_matrix_UB_22      0.0536
_diffrn_orient_matrix_UB_23      -0.0591
_diffrn_orient_matrix_UB_31      -0.0085
_diffrn_orient_matrix_UB_32      0.0307
_diffrn_orient_matrix_UB_33      0.0455
_diffrn_radiation_detector       CCD
_diffrn_radiation_type           MoK\a
_diffrn_radiation_wavelength     0.71073
_diffrn_reflns_av_R_equivalents  0.0571
_diffrn_reflns_av_unetI/netI     0.0503
_diffrn_reflns_Laue_measured_fraction_full 0.961
_diffrn_reflns_Laue_measured_fraction_max 0.959
_diffrn_reflns_limit_h_max       21
_diffrn_reflns_limit_h_min       -21
_diffrn_reflns_limit_k_max       6
_diffrn_reflns_limit_k_min       -6
_diffrn_reflns_limit_l_max       7
_diffrn_reflns_limit_l_min       -7
_diffrn_reflns_number            4276
_diffrn_reflns_point_group_measured_fraction_full 0.959
_diffrn_reflns_point_group_measured_fraction_max 0.957
_diffrn_reflns_theta_full        25.242
_diffrn_reflns_theta_max         25.487
_diffrn_reflns_theta_min         3.397
_diffrn_source                   'Sealed Tube'
_diffrn_source_current           80.0000
_diffrn_source_power             4.0000
_diffrn_source_voltage           50.0000
_exptl_absorpt_coefficient_mu    24.391
_exptl_absorpt_correction_T_max  1.0000
_exptl_absorpt_correction_T_min  0.4252
_exptl_absorpt_correction_type   multi-scan
_exptl_crystal_colour            White
_exptl_crystal_density_diffrn    3.585
_exptl_crystal_description       Prism
_exptl_crystal_F_000             672
_exptl_crystal_size_max          0.30
_exptl_crystal_size_mid          0.21
_exptl_crystal_size_min          0.15
_refine_diff_density_max         4.451
_refine_diff_density_min         -3.908
_refine_diff_density_rms         0.432
_refine_ls_abs_structure_details
;
 Refined as an inversion twin.
;
_refine_ls_abs_structure_Flack   0.49(3)
_refine_ls_extinction_coef       0.0022(3)
_refine_ls_extinction_expression Fc^*^=kFc[1+0.001xFc^2^\l^3^/sin(2\q)]^-1/4^
_refine_ls_extinction_method     'SHELXL-2014/7 (Sheldrick 2014'
_refine_ls_goodness_of_fit_ref   1.078
_refine_ls_hydrogen_treatment    mixed
_refine_ls_matrix_type           full
_refine_ls_number_parameters     113
_refine_ls_number_reflns         1264
_refine_ls_number_restraints     62
_refine_ls_restrained_S_all      1.064
_refine_ls_R_factor_all          0.0495
_refine_ls_R_factor_gt           0.0471
_refine_ls_shift/su_max          0.186
_refine_ls_shift/su_mean         0.002
_refine_ls_structure_factor_coef Fsqd
_refine_ls_weighting_details
'w=1/[\s^2^(Fo^2^)+(0.0663P)^2^+21.2137P] where P=(Fo^2^+2Fc^2^)/3'
_refine_ls_weighting_scheme      calc
_refine_ls_wR_factor_gt          0.1187
_refine_ls_wR_factor_ref         0.1228
_reflns_Friedel_coverage         0.821
_reflns_Friedel_fraction_full    0.956
_reflns_Friedel_fraction_max     0.954
_reflns_number_gt                1173
_reflns_number_total             1264
_reflns_threshold_expression     'I > 2\s(I)'
_cod_data_source_file            JSSC-2018-257-34.cif
_cod_data_source_block           a
_cod_depositor_comments
;
The following automatic conversions were performed:

data item '_exptl_absorpt_correction_type' value 'Multi-scan' was
changed to 'multi-scan' in accordance with the built-in table derived
from the CIF Core dictionary named 'cif_core.dic' version 2.4.5 last
updated on 2014-11-21.

Automatic conversion script
Id: cif_fix_values 8369 2020-08-20 11:38:08Z andrius 
;
_cod_database_code               1561314
_shelx_space_group_comment
;
The symmetry employed for this shelxl refinement is uniquely defined
by the following loop, which should always be used as a source of
symmetry information in preference to the above space-group names.
They are only intended as comments.
;
_diffrn_number_total             948
_olex2_refinement_description
;
1. Twinned data refinement
 Scales: 0.51(3)
 0.49(3)
2. Fixed Uiso
 At 1.2 times of:
  All C(H) groups
3. Restrained distances
 C23-C22
 1.5 with sigma of 0.02
 C12-C11
 1.45 with sigma of 0.02
 O11-C11 = O12-C11
 1.2 with sigma of 0.02
 O22-C21 = O21-C21
 1.2 with sigma of 0.02
 C13-H13
 0.93 with sigma of 0.02
4. Uiso/Uaniso restraints and constraints
Uanis(S11) \\sim Ueq, Uanis(O11) \\sim Ueq, Uanis(O12) \\sim Ueq, Uanis(C11)
\\sim Ueq, Uanis(C13) \\sim Ueq, Uanis(C23) \\sim Ueq, Uanis(C21) \\sim Ueq,
Uanis(C22) \\sim Ueq, Uanis(C12) \\sim Ueq: with sigma of 0.001 and sigma for
terminal atoms of 0.0005
5.a Aromatic/amide H refined with riding coordinates:
 C23(H23)
;
_shelx_res_file
;
    a.res created by SHELXL-2014/7

TITL a in Pmc21 #26
REM reset to Pmc21 #26
CELL 0.71073 17.9898 5.672 6.8519 90 90 90
ZERR 4 0.0047 0.0015 0.0017 0 0 0
LATT -1
SYMM -X,-Y,0.5+Z
SYMM -X,+Y,+Z
SYMM +X,-Y,0.5+Z
SFAC C H O Pb S
UNIT 24 8 16 4 4
DFIX 1.5 C23 C22
DFIX 1.45 C12 C11
DFIX 1.2 O11 C11 O12 C11
DFIX 1.2 O22 C21 O21 C21
DFIX 0.93 C13 H13
ISOR 0.001 0.0005 S11 O11 O12 C11 C13 C23 C21 C22 C12

L.S. 40
PLAN  10
damp 2000
BOND
MORE -1
BOND $H
CONF
fmap 2
acta
TWIN -1 0 0 0 -1 0 0 0 -1 2
OMIT -3 51
OMIT 3 0 4
OMIT 1 1 -1
OMIT 1 1 1
OMIT 3 0 2
OMIT 3 0 -2
OMIT 3 0 -4
OMIT 1 0 2
OMIT 1 0 -2
OMIT 1 1 -4
OMIT 1 1 4
OMIT 8 1 2
OMIT 8 1 -2
REM <olex2.extras>
REM <HklSrc "%.\\a.hkl">
REM </olex2.extras>

WGHT    0.066300   21.213701
EXTI    0.002199
BASF   0.48810
FVAR       0.34511
PB1   4    0.260126    0.228427    0.859710    11.00000    0.01734    0.00690 =
         0.01951    0.00027    0.00034    0.00046
S11   5    0.500000   -0.157721    0.863339    10.50000    0.01539    0.01332 =
         0.01752    0.00016    0.00000    0.00000
S21   5    0.000000    0.437183    0.434909    10.50000    0.02111    0.00398 =
         0.05288    0.00358    0.00000    0.00000
O11   3    0.351881   -0.083348    0.680615    11.00000    0.02527    0.02472 =
         0.02511    0.00026   -0.00005    0.00002
O12   3    0.317967   -0.452997    0.662587    11.00000    0.03800    0.03799 =
         0.03851    0.00027   -0.00009   -0.00027
O21   3    0.195038    0.171552    0.540459    11.00000    0.01488    0.04198 =
         0.04893   -0.01267   -0.00280    0.00320
O22   3    0.158522    0.507946    0.409009    11.00000    0.04331
C11   1    0.363212   -0.294973    0.707126    11.00000    0.02344    0.02344 =
         0.02369    0.00010    0.00001   -0.00004
PART 1
C12   1    0.433701   -0.368635    0.800318    11.00000    0.01426    0.01431 =
         0.01438   -0.00005   -0.00008   -0.00007
PART 0
C13   1    0.463135   -0.592447    0.824517    11.00000    0.01418    0.01378 =
         0.01427    0.00006   -0.00019    0.00000
C21   1    0.147877    0.315698    0.488343    11.00000    0.03365    0.03376 =
         0.03393    0.00002   -0.00007   -0.00003
C22   1    0.068875    0.252020    0.494643    11.00000    0.02857    0.02854 =
         0.02883   -0.00003   -0.00002   -0.00012
C23   1    0.040139    0.024474    0.553256    11.00000    0.02537    0.02533 =
         0.02561    0.00005   -0.00018    0.00007
AFIX  43
H23   2    0.069447   -0.104496    0.586477    11.00000   -1.20000
AFIX   0
H13   2    0.436696   -0.733070    0.811634    11.00000   -0.00100
HKLF 4

REM  a in Pmc21 #26
REM R1 =  0.0471 for    1173 Fo > 4sig(Fo)  and  0.0495 for all    1264 data
REM    113 parameters refined using     62 restraints

END

WGHT      0.0663     21.2056

REM Highest difference peak  4.451,  deepest hole -3.908,  1-sigma level  0.432
Q1    1   0.2113  0.2276  0.8598  11.00000  0.05    4.45
Q2    1   0.3134  0.2311  0.8571  11.00000  0.05    2.79
Q3    1   0.0000  0.4314  0.2853  10.50000  0.05    2.64
Q4    1   0.3168 -0.5269  0.5431  11.00000  0.05    1.85
Q5    1   0.5000 -0.1725  0.9502  10.50000  0.05    1.82
Q6    1   0.5000 -0.1671  0.7818  10.50000  0.05    1.54
Q7    1   0.1574  0.5519  0.2605  11.00000  0.05    1.48
Q8    1   0.0633 -0.2159  0.7232  11.00000  0.05    1.37
Q9    1   0.1469  0.3042  0.2522  11.00000  0.05    1.28
Q10   1   0.1604  0.4967  0.3166  11.00000  0.05    1.28
;
_shelx_res_checksum              18285
_shelx_hkl_file
;
  -3   0   0  334.19   14.93
  -3   0   0  337.33   14.96
  -3   0   0  362.63   18.60
   3   0   0  304.90   15.49
   4   0   0 5836.97  230.08
  -5   0   0  585.25   26.17
  -5   0   0  603.42   26.50
   5   0   0  583.55   31.08
  -6   0   0 1950.40   79.50
  -6   0   0 2015.22   81.54
   6   0   0 1911.42   80.70
  -7   0   0  912.00   39.85
  -7   0   0  910.81   39.56
   7   0   0  892.29   43.50
  -8   0   0 3836.52  154.64
  -8   0   0 3810.59  152.13
   8   0   0 3802.07  156.25
  -9   0   0 1683.47   71.42
  -9   0   0 1714.76   72.05
   9   0   0 1662.23   74.93
 -10   0   0 3676.21  115.79
 -10   0   0 3686.48  115.31
  10   0   0 3658.78  123.68
 -11   0   0 2177.72   76.14
 -11   0   0 2202.74   73.42
  11   0   0 2304.93   95.89
 -12   0   0 2775.44  100.03
 -12   0   0 2960.02  104.62
  12   0   0 2993.62  117.94
 -13   0   0 1819.97   69.10
 -13   0   0 1879.89   70.55
  13   0   0 2082.66  104.86
 -14   0   0  555.84   32.32
 -14   0   0  607.02   34.68
  14   0   0  653.06   46.32
 -15   0   0 1959.54  112.65
 -15   0   0 1870.44  106.26
  15   0   0 2158.05  132.85
 -16   0   0 1275.99   94.97
 -16   0   0 1174.38   86.51
  16   0   0 1349.58  117.31
 -17   0   0 2270.10  193.89
 -17   0   0 1966.25  167.38
  17   0   0 2455.77  219.55
 -18   0   0  305.64   28.66
  18   0   0  323.01   85.25
 -19   0   0 2061.48  160.57
 -19   0   0 1989.54  138.55
  19   0   0 2320.54  194.59
 -20   0   0  436.58   41.27
 -20   0   0  402.29   37.75
  20   0   0  496.43  136.54
 -21   0   0 1473.09  130.63
 -21   0   0 1413.98  124.48
 -22   0   0    4.02    8.80
 -23   0   0 1055.11  188.98
 -23   0   0 1014.63  180.70
   0   0  -1   12.15    1.21
   0   0  -1   11.45    1.24
   0   0   1    9.14    1.06
  -1   0  -1    5.23    1.12
   1   0  -1    6.66    1.42
  -1   0   1    5.22    1.07
  -1   0  -1    6.31    0.72
  -2   0   1   11.23    0.86
  -2   0  -1   10.66    2.62
  -2   0   1   19.53    1.49
  -2   0  -1   17.56    1.38
  -2   0   1   11.22    2.14
  -3   0   1    6.88    1.65
  -3   0  -1    7.48    7.18
  -3   0   1   10.28    1.80
   3   0   1   14.20    3.84
  -3   0  -1    8.33    1.49
  -3   0   1    7.11    2.58
  -4   0   1    7.81    2.51
  -4   0  -1    8.63    7.63
  -4   0   1   13.02    2.44
   4   0   1   10.13    3.25
  -4   0  -1    7.98    1.80
  -4   0   1    6.29    2.08
   4   0   1   19.96   15.11
  -5   0   1    3.39    2.33
  -5   0  -1    3.28    4.16
  -5   0  -1    2.81    1.44
  -5   0   1    3.68    3.29
   5   0  -1    4.04    2.87
   5   0   1    6.21    5.84
  -6   0   1    0.94    4.55
  -6   0  -1    3.48    4.32
  -6   0  -1    2.73    1.84
  -6   0   1    3.49    2.68
   6   0  -1   10.96    6.79
   6   0   1   10.06   10.63
  -7   0  -1    1.04    1.47
  -7   0  -1    1.42    2.63
  -7   0   1    2.44    3.04
   7   0  -1    3.48    3.42
   7   0   1    1.84    2.83
  -8   0  -1    2.91    3.18
  -8   0  -1    1.56    2.34
  -8   0   1    1.69    3.26
   8   0  -1   15.08   11.93
   8   0   1    1.74    2.57
  -9   0  -1    4.84    4.36
  -9   0   1    0.92    2.02
  -9   0  -1    2.22    3.50
  -9   0   1    3.22    4.41
   9   0  -1   -1.16    5.41
   9   0   1    2.65    2.67
 -10   0  -1    2.34    5.89
 -10   0   1    0.59    1.97
 -10   0  -1    2.57    3.68
 -10   0   1    1.79    5.05
  10   0  -1    2.76    4.60
  10   0   1    1.34    5.94
 -11   0  -1    2.21    4.84
 -11   0   1    1.31    3.34
 -11   0  -1    1.59    4.23
 -11   0   1    6.91    7.75
  11   0  -1   -0.55    5.81
  11   0   1    4.32    6.21
 -12   0  -1    2.01    2.13
 -12   0   1    1.32    2.94
 -12   0  -1    0.26    3.26
 -12   0   1    2.31    4.41
  12   0  -1    1.17    4.82
  12   0   1    2.64    9.54
 -13   0  -1    0.95    3.53
 -13   0   1    1.13    2.93
 -13   0  -1    1.07    3.56
 -13   0   1    2.65    6.41
  13   0  -1    1.73    6.83
  13   0   1    2.21    5.80
 -14   0  -1    2.76    5.26
 -14   0   1    1.99    2.43
 -14   0  -1    3.04    5.11
 -14   0   1    0.47    4.87
  14   0  -1    1.82    3.94
  14   0   1    4.73   10.14
 -15   0  -1    2.74    5.24
 -15   0   1    2.05    5.12
 -15   0   1    0.90    5.22
 -15   0  -1    0.70    3.41
  15   0  -1    2.75    6.29
  15   0   1    5.90   13.70
 -16   0  -1   -0.55    3.40
 -16   0   1   -0.84    4.97
 -16   0   1    1.46    5.36
 -16   0  -1    2.72    5.61
  16   0  -1    1.55    8.19
  16   0   1    2.21    8.42
 -17   0  -1   -0.71    6.30
 -17   0   1    0.80    3.42
 -17   0   1    2.73    6.09
 -17   0  -1    1.61    4.38
  17   0  -1    5.36   10.29
  17   0   1    4.77    9.36
 -18   0  -1   -0.12    6.39
 -18   0   1    2.80    7.10
 -18   0   1    4.15    5.95
 -18   0  -1    0.32    4.72
  18   0  -1    1.64    6.96
  18   0   1    3.40    9.93
 -19   0  -1    2.39    5.49
 -19   0   1    2.46    5.55
 -19   0   1    6.80    7.73
 -19   0  -1    2.73    6.97
  19   0  -1    8.96   16.08
  19   0   1    1.92    6.51
 -20   0  -1   -0.40    6.53
 -20   0   1    1.61    3.55
 -20   0   1    0.27    5.89
 -20   0  -1    1.53    4.48
  20   0  -1    2.81   12.69
 -21   0  -1    2.20    3.71
 -21   0   1    1.64    2.84
 -21   0   1    2.38    6.06
  21   0  -1    5.58   14.75
 -22   0  -1    0.76    7.03
 -22   0   1    1.12    5.75
 -22   0   1    1.43    7.21
 -22   0  -1   -1.99    5.54
 -23   0  -1    1.17    4.49
 -23   0   1    2.75    6.74
 -23   0   1   -0.12    8.03
  -1   0   2  245.50   10.78
  -1   0  -2  225.47   12.02
   1   0  -2  229.55   10.49
  -1   0  -2  258.95   11.58
  -1   0   2  214.27   10.62
   1   0   2  233.46   10.69
  -2   0  -2 4527.54  178.77
   2   0  -2 3799.97  148.66
  -2   0   2 4148.81  163.21
  -3   0  -2   85.09   10.11
  -3   0  -2  126.82    6.45
  -3   0   2   90.06    7.64
  -3   0  -2  104.87    4.68
  -5   0  -2  781.78   36.52
  -5   0   2  816.02   32.85
  -5   0  -2  854.21   34.25
  -5   0   2  821.47   47.62
  -6   0  -2 4682.95  187.72
  -6   0   2 4911.98  191.66
  -6   0   2 4842.49  192.78
  -7   0  -2 2090.35   99.57
  -7   0   2 2045.97   81.64
  -7   0  -2 2180.84   86.64
  -7   0   2 2125.42   88.74
  -8   0  -2 5802.69  197.71
  -8   0   2 5675.12  185.99
  -8   0   2 5747.66  192.43
   8   0  -2 5113.08  166.21
  -9   0   2 1762.95   72.57
  -9   0   2 1874.28   67.12
   9   0  -2 1777.99   66.80
 -10   0  -2 2519.52   94.19
 -10   0   2 2607.45  105.89
 -10   0  -2 2756.14   93.50
 -10   0   2 2669.50   96.98
  10   0  -2 2612.07   99.58
 -11   0  -2 1793.74   69.43
 -11   0  -2 1957.45   68.97
 -11   0   2 1808.90   73.72
  11   0  -2 1803.15   78.70
  11   0   2 1814.57   72.42
 -12   0  -2 2805.60  129.47
 -12   0   2 2879.66  128.32
 -12   0  -2 2987.38  133.04
 -12   0   2 2912.53  134.56
  12   0  -2 2962.73  142.67
  12   0   2 3016.81  147.63
 -13   0  -2 1410.68   71.11
 -13   0  -2 1435.71   66.75
 -13   0   2 1456.95   76.09
  13   0  -2 1593.20   92.72
  13   0   2 1490.16   87.90
 -14   0  -2  728.34   47.99
 -14   0   2  757.33   48.60
 -14   0  -2  741.57   44.37
  14   0  -2  769.64   55.19
  14   0   2  710.93   51.39
 -15   0  -2 1699.46  124.78
 -15   0   2 1693.39  122.32
 -15   0  -2 1646.41  117.29
  15   0  -2 1792.38  137.19
  15   0   2 1607.52  122.72
 -16   0  -2  840.76   76.63
 -16   0   2  835.73   73.88
 -16   0  -2  834.94   73.26
  16   0  -2  895.51   94.85
  16   0   2  798.65   76.80
 -17   0  -2 1916.84  136.84
 -17   0   2 1741.55  123.08
 -17   0   2 1739.07  122.93
 -17   0  -2 1741.78  119.94
  17   0  -2 2023.19  155.99
  17   0   2 1978.56  145.55
 -18   0  -2  111.71   16.66
 -18   0   2   87.81   19.32
 -18   0   2   88.49   14.37
 -18   0  -2   84.12   11.08
  18   0  -2   99.63   53.25
  18   0   2   93.04   26.29
 -19   0  -2 1507.09  121.44
 -19   0   2 1535.43  121.68
 -19   0   2 1449.25  115.87
  19   0  -2 1739.61  155.25
 -20   0  -2  276.67   41.07
 -20   0   2  258.48   37.79
  20   0  -2  272.52  101.95
 -21   0  -2 1351.61  122.23
 -21   0   2 1318.50  118.48
  21   0  -2 1623.67  193.48
 -22   0  -2   19.43   20.96
 -22   0   2   25.49   10.94
  22   0  -2   26.18   28.02
   0   0  -3    2.91    3.65
   0   0   3    5.89    2.32
  -1   0  -3    2.20    2.61
   1   0  -3    2.61    3.26
  -1   0   3    3.05    2.01
   1   0   3    3.71    1.62
  -2   0  -3    3.73    2.88
   2   0  -3    3.57    4.39
   2   0  -3    4.26    1.35
  -2   0  -3    2.69    3.07
  -2   0   3    2.88    2.10
  -3   0  -3    1.01    2.46
  -3   0  -3    2.27    0.84
  -3   0   3    0.64    2.54
  -4   0  -3    1.10    1.43
  -4   0   3    1.22    2.78
  -5   0  -3    1.37    2.75
  -5   0   3    1.22    2.87
  -6   0  -3    0.97    2.27
  -6   0   3    1.51    3.10
  -7   0  -3    0.79    3.36
  -7   0   3    0.75    0.91
  -7   0   3    1.81    2.22
  -7   0   3    3.72    5.67
  -7   0  -3    1.19    1.16
  -8   0  -3   -0.35    2.90
  -8   0   3    1.09    0.76
  -8   0   3    0.96    3.43
  -8   0  -3    0.28    1.14
  -9   0  -3    0.36    5.43
  -9   0   3    0.48    0.88
  -9   0   3   -0.34    3.70
  -9   0  -3    0.59    1.04
 -10   0  -3    1.51    3.85
 -10   0   3    0.79    1.73
 -10   0   3    0.93    4.58
 -10   0  -3    1.01    2.12
  10   0  -3    1.56    2.55
 -11   0  -3    1.02    3.19
 -11   0   3    0.45    1.26
 -11   0   3    1.34    4.96
 -11   0  -3    1.09    2.13
  11   0  -3    0.70    3.41
 -12   0  -3    1.85    6.38
 -12   0   3    0.28    1.28
 -12   0   3    1.87    5.39
 -12   0  -3    0.34    1.79
  12   0  -3   -0.95    6.78
 -13   0  -3    2.85    5.77
 -13   0   3    0.59    1.48
 -13   0   3   12.19    6.23
 -13   0  -3    1.44    2.91
  13   0  -3    2.13    5.94
 -14   0  -3    2.36    6.42
 -14   0   3    0.48    1.90
 -14   0   3    1.62    5.85
 -14   0  -3    0.57    2.98
  14   0  -3    3.08    5.26
 -15   0  -3    1.28    3.41
 -15   0   3    0.50    1.48
 -15   0   3   -1.48    6.43
  15   0  -3    2.05    8.73
 -16   0  -3   -0.69    7.17
 -16   0   3    1.75    6.79
  16   0  -3   -3.18    9.13
 -17   0  -3   -1.08    6.17
 -17   0   3    0.79    5.93
  17   0  -3    5.39    7.33
 -18   0  -3   -1.16    6.28
 -18   0   3    1.05    5.79
  18   0  -3    4.01    7.77
 -19   0  -3   -1.62    6.31
 -19   0   3    0.63    6.64
  19   0  -3    2.14   11.51
 -20   0  -3    1.97    3.13
 -20   0   3   -0.36    7.79
  20   0  -3   -0.37   11.34
 -21   0  -3    1.33    3.47
 -21   0   3    2.91    8.40
  21   0  -3    0.82    7.86
   0   0  -4 4642.09  140.29
   0   0   4 4738.59  143.71
  -1   0  -4  221.80   13.20
   1   0  -4  207.26   11.45
  -1   0   4  225.67   13.01
   1   0   4  210.52   10.93
  -2   0  -4 3673.83  115.55
   2   0  -4 3478.82  105.06
  -3   0  -4   34.38    7.29
   3   0  -4   24.57    3.55
   3   0  -4   39.12    2.57
  -3   0  -4   37.62    3.17
  -3   0   4   33.59    6.16
  -4   0  -4 5472.58  190.21
  -4   0   4 4970.66  152.70
  -5   0  -4  816.87   46.73
  -5   0   4  671.05   30.02
  -6   0  -4 3328.61  118.92
  -6   0   4 2919.29  104.01
  -7   0  -4  598.10   32.80
  -7   0   4  559.23   42.24
  -8   0  -4 2834.80  130.37
  -8   0   4 2652.66  120.73
  -9   0  -4 1130.13   70.36
  -9   0   4 1048.16   52.84
 -10   0  -4 1551.43   91.08
 -10   0   4 1417.11   82.15
 -11   0  -4  861.14   56.05
 -11   0   4  780.29   49.27
 -12   0  -4 1806.70  137.49
 -12   0   4 1429.70  104.62
  12   0  -4 1601.68  122.84
 -13   0  -4 1885.44  162.86
 -13   0   4 1724.25  148.09
  13   0  -4 1670.87  149.83
 -14   0  -4 1085.58   83.09
 -14   0   4 1033.18   77.21
  14   0  -4 1110.49   94.62
 -15   0  -4  998.73   76.79
 -15   0   4  908.56   68.73
  15   0  -4  993.51   82.34
 -16   0  -4  500.17   44.99
 -16   0   4  448.11   40.36
  16   0  -4  518.23   51.22
 -17   0  -4 1522.35  123.23
 -17   0   4 1436.79  115.42
  17   0  -4 1595.01  150.08
 -18   0   4  117.81   22.71
  18   0  -4  128.58   92.11
 -19   0   4 1002.48   93.28
  19   0  -4  951.39   99.70
 -20   0  -4   85.03   17.92
 -20   0   4   97.69   19.34
  20   0  -4  121.15   40.38
   0   0  -5    0.60    1.50
   0   0   5    2.94    4.22
  -1   0  -5    0.00    1.89
   1   0  -5    1.42    2.22
  -1   0   5    0.66    3.20
   1   0   5    2.27    3.45
  -2   0  -5    0.31    3.65
   2   0  -5    1.85    1.69
  -2   0   5    2.57    4.73
  -3   0  -5    1.78    3.22
  -3   0   5    4.31    5.29
  -4   0  -5    0.43    1.83
  -4   0   5    0.21    3.72
  -5   0  -5    0.26    2.69
  -5   0   5   -0.45    4.07
  -6   0  -5   -0.20    4.01
  -6   0   5   -0.56    4.14
  -7   0  -5   -0.04    2.84
  -7   0   5   -1.27    4.33
  -8   0  -5    0.29    3.56
  -8   0   5    2.85    4.64
  -9   0  -5   -0.16    3.10
  -9   0   5    0.39    4.32
 -10   0  -5    0.87    2.89
 -10   0   5   -0.18    4.63
 -11   0  -5    0.57    4.65
 -11   0   5    1.55    4.87
 -12   0  -5   -1.58    7.14
 -12   0   5   -0.34    5.65
 -13   0  -5    0.86    5.44
 -13   0   5    0.22    5.86
  13   0  -5    1.11    8.93
 -14   0  -5    0.38    6.31
 -14   0   5    0.94    6.52
  14   0  -5    2.09    6.53
 -15   0  -5    1.41    3.61
 -15   0   5    5.75    9.49
  15   0  -5    1.42    4.41
 -16   0  -5    2.06    7.46
 -16   0   5    1.56    6.35
  16   0  -5    2.10    5.01
 -17   0  -5    0.26    6.36
 -17   0   5   -0.12    6.69
  17   0  -5    7.57   11.81
 -18   0  -5    0.66    6.21
 -18   0   5    3.39    8.66
  18   0  -5    0.01    9.73
 -19   0  -5   -1.19    8.49
 -19   0   5    2.50    9.38
  19   0  -5    3.24    6.61
   0   0   6 3394.14  283.29
  -1   0  -6  111.08   13.26
  -1   0   6  111.67   13.35
  -2   0  -6 3085.45  258.53
  -2   0   6 2934.53  206.66
  -3   0  -6   65.45   11.74
  -3   0   6   53.61    9.73
  -4   0  -6 2411.85  173.20
  -4   0   6 2493.07  177.75
  -5   0  -6  495.36   47.49
  -5   0   6  461.68   43.99
  -6   0  -6 1868.03  160.92
  -6   0   6 1806.48  154.63
  -7   0  -6   80.66   38.60
  -7   0   6   76.30   25.16
  -8   0  -6 1516.80  119.65
  -8   0   6 1553.10  111.65
  -9   0  -6  848.40   70.30
  -9   0   6  895.53   69.18
 -10   0  -6 1105.19   83.31
 -10   0   6 1151.44   84.59
 -11   0  -6  482.49   41.26
 -11   0   6  503.71   42.68
 -12   0  -6  620.94   54.73
 -12   0   6  672.58   58.62
 -13   0  -6 1247.63  155.65
 -13   0   6 1313.70  160.43
  13   0  -6 1130.71  142.78
 -14   0  -6  518.72   52.99
 -14   0   6  539.28   54.95
  14   0  -6  548.23   64.42
 -15   0  -6  666.62   75.56
 -15   0   6  670.63   65.35
  15   0  -6  645.45   69.37
 -16   0  -6  333.62   56.58
 -16   0   6  333.45   44.76
  16   0  -6  315.57   47.58
 -17   0  -6 1108.20  205.18
 -17   0   6 1081.08  193.44
  17   0  -6  937.83  172.41
  -3   0   7    2.03    4.03
  -4   0   7    1.41    6.73
  -5   0   7    2.43    5.65
  -6   0  -7    0.00    4.68
  -6   0   7    1.67    8.37
  -7   0  -7    2.04    4.17
  -7   0   7    3.00    9.06
  -8   0  -7   -1.48    4.94
  -8   0   7    2.48    7.99
  -9   0  -7    2.12    3.42
  -9   0   7    3.01    6.15
 -10   0  -7    2.22    4.21
 -10   0   7    3.07    6.26
 -11   0  -7   -0.50    7.72
 -11   0   7    3.63    6.36
 -12   0  -7   -1.00    8.16
 -12   0   7    0.72    6.96
 -13   0  -7    1.98    5.82
 -13   0   7    5.06   11.23
 -14   0  -7    3.49    7.01
 -14   0   7    4.20   11.88
  14   0  -7    1.49    4.80
  -9   0   8  538.60   99.44
 -10   0   8  640.32  116.76
   0  -1   0   35.06   10.37
   0   1   0   37.84    5.45
  -1  -1   0   24.70    6.61
   1  -1   0   21.77    6.06
  -1   1   0   32.08    8.61
   1   1   0   22.23    5.52
  -1   1   0   23.47    3.82
  -2  -1   0  211.62   13.86
   2  -1   0  236.51   16.04
  -2   1   0  274.88   19.17
   2   1   0  214.18   15.54
  -3  -1   0   41.96    6.95
   3  -1   0   44.20    6.47
  -3   1   0   50.06    8.00
   3   1   0   49.88   22.71
  -4  -1   0  217.31   13.12
   4  -1   0  245.10   15.16
  -4   1   0  254.06   15.61
  -4  -1   0  205.67   11.66
   4   1   0  210.48   20.98
  -5  -1   0   32.82    5.17
   5  -1   0   33.67    5.57
  -5   1   0   37.62    6.24
  -5  -1   0   29.27    4.06
   5  -1   0   28.64    3.62
   5   1   0   34.01   31.35
  -6  -1   0  463.59   23.50
   6  -1   0  476.63   24.09
  -6   1   0  535.53   29.55
  -6  -1   0  470.92   22.88
   6  -1   0  428.65   20.43
   6   1   0  443.65   27.25
  -7  -1   0  651.74   33.47
   7  -1   0  683.99   32.56
  -7   1   0  702.87   33.71
  -7  -1   0  678.68   31.42
   7  -1   0  620.37   32.32
   7   1   0  625.05   36.80
  -8  -1   0  196.76   13.80
   8  -1   0  203.55   13.90
  -8   1   0  188.88   13.22
  -8  -1   0  195.30   12.76
   8  -1   0  186.94   14.00
   8   1   0  181.27   17.95
  -9   1   0  281.97   16.40
  -9  -1   0  293.25   17.67
  -9   1   0  289.82   16.62
  -9  -1   0  293.42   15.52
   9  -1   0  261.54   18.15
   9   1   0  267.14   21.31
 -10   1   0   58.91    7.72
 -10  -1   0   58.40    7.83
 -10   1   0   55.47    8.40
  10  -1   0   53.34    7.96
  10   1   0   56.44   14.07
 -11   1   0    5.38    7.05
 -11  -1   0    6.92    4.71
 -11   1   0    3.27    4.85
 -11  -1   0    5.83    5.23
  11  -1   0    5.87    3.49
  11   1   0    5.63    7.56
 -12   1   0    1.49    5.90
 -12  -1   0    1.76    6.14
 -12   1   0    6.27    7.36
 -12  -1   0    1.23    4.44
  12  -1   0    2.49    4.19
  12   1   0    4.71    7.99
 -13   1   0  736.56   43.46
 -13  -1   0  761.34   42.54
 -13   1   0  764.34   42.24
 -13  -1   0  777.51   41.51
  13  -1   0  737.97   46.08
  13   1   0  699.54   60.64
 -14   1   0   21.07   16.60
 -14  -1   0   22.87   22.86
 -14   1   0   22.24    7.68
 -14  -1   0   21.19    9.07
  14  -1   0   21.14   18.90
  14   1   0   26.46   17.87
 -15   1   0    3.60    4.30
 -15  -1   0    1.72    4.17
 -15   1   0    1.32    5.87
 -15  -1   0    3.69    4.95
  15  -1   0    2.17    7.62
  15   1   0    1.74    6.67
 -16   1   0    2.42    5.20
 -16  -1   0    2.66    4.05
 -16  -1   0    2.78    5.45
  16  -1   0    5.06    8.28
  16   1   0    7.64   10.58
 -17   1   0   57.20   35.73
 -17  -1   0   59.77   18.44
 -17   1   0   53.15   10.35
 -17  -1   0   61.78   11.30
  17  -1   0   61.45   22.10
  17   1   0   55.79   43.72
 -18   1   0   42.88   30.53
 -18  -1   0   45.45   21.42
 -18   1   0   45.33   10.51
 -18  -1   0   41.50   16.32
  18   1   0   47.94   41.48
 -19   1   0   21.64   16.20
 -19  -1   0   23.78   18.24
 -19   1   0   19.21    8.26
 -19  -1   0   19.16    8.00
  19   1   0   29.97   19.94
 -20   1   0   11.58   10.77
 -20  -1   0    9.42    9.66
 -20   1   0    9.60   10.56
 -20  -1   0   10.22    6.62
  20   1   0   14.53   22.41
 -21   1   0   70.63   20.22
 -21  -1   0   75.87   30.02
 -21   1   0   68.12   14.17
 -21  -1   0   71.99   13.88
  21   1   0   87.82   77.94
 -22   1   0    2.61    6.62
 -22  -1   0    3.25    6.98
 -22   1   0    0.66    7.16
 -22  -1   0    2.77    9.28
  22   1   0    2.03    9.85
 -23   1   0   11.51   16.39
 -23  -1   0   11.50   12.42
 -23   1   0   10.00    7.79
 -23  -1   0   15.20    9.55
   0  -1  -1 4867.26  198.85
   0  -1   1 5002.11  199.75
   0   1  -1 4573.99  180.98
  -1  -1  -1   51.02    7.54
   1  -1  -1   55.64   14.40
  -1  -1   1   49.40    9.15
   1  -1   1   50.85    6.21
   1   1   1   75.43   16.76
  -1   1   1   63.39    7.83
  -1   1  -1   50.33    5.30
   1   1  -1   54.71    6.72
  -2  -1   1 8131.41  251.23
   2  -1  -1 9999.98  307.65
  -2   1  -1 8986.52  279.64
   2   1  -1 9154.21  273.53
  -3  -1  -1  415.06   21.23
  -3  -1   1  407.51   22.32
   3  -1  -1  501.36   26.90
   3  -1   1  454.33   22.54
  -3   1  -1  542.26   32.42
  -3   1   1  496.59   26.86
  -3  -1   1  391.19   19.28
   3   1  -1  429.34   23.54
   3   1   1  462.25   27.14
  -4  -1  -1 6548.24  197.37
  -4  -1   1 6467.67  254.86
   4  -1  -1 7500.15  225.35
   4  -1   1 7327.78  219.27
  -4  -1   1 6867.02  205.32
   4   1  -1 6595.56  201.94
  -4   1  -1 7015.27  206.02
   4   1   1 6687.19  208.77
  -5  -1  -1  798.74   37.14
  -5  -1   1  831.30   37.20
   5  -1  -1  864.94   38.73
   5  -1   1  815.03   37.09
  -5   1  -1  954.29   44.07
  -5   1   1  840.05   38.36
  -5  -1   1  802.71   36.23
  -5  -1  -1  834.76   35.84
   5   1  -1  747.11   37.91
  -5   1  -1  833.85   34.24
   5   1   1  796.08   46.20
  -6  -1  -1 7020.77  212.17
  -6  -1   1 7124.87  213.10
   6  -1  -1 7539.18  225.55
   6  -1   1 7664.47  231.31
  -6   1   1 7804.08  234.42
  -6  -1   1 7271.68  218.11
  -6   1  -1 7357.72  216.70
   6   1  -1 6645.57  206.35
   6   1   1 6384.41  263.24
  -7  -1  -1 1887.74   80.34
  -7  -1   1 1867.63   79.28
   7  -1  -1 1900.35   79.22
   7  -1   1 1886.98   80.00
  -7   1  -1 2064.75   86.65
  -7   1   1 1847.18   78.26
  -7  -1   1 1882.64   79.62
  -7  -1  -1 1940.79   79.47
  -7   1  -1 2020.75   81.54
   7   1  -1 1789.50   83.32
   7   1   1 1842.45   88.28
   7  -1   1 2113.85   85.89
  -8   1  -1 4195.17  169.92
  -8  -1  -1 4254.02  216.29
  -8  -1   1 4163.41  167.98
   8  -1  -1 4441.35  177.96
  -8   1  -1 4477.63  179.72
  -8   1   1 4184.29  169.16
  -8  -1   1 4402.93  177.58
  -8  -1  -1 4436.90  176.48
   8   1  -1 3886.37  165.75
   8   1   1 4197.24  189.63
   8  -1   1 4342.15  173.17
  -9   1  -1 1369.23   51.55
  -9  -1  -1 1405.47   60.66
  -9  -1   1 1408.73   49.61
   9  -1  -1 1548.42   53.92
  -9   1  -1 1481.86   52.13
  -9   1   1 1430.81   52.22
  -9  -1   1 1473.61   73.01
  -9  -1  -1 1467.16   49.89
   9  -1  -1 1414.71   56.34
   9   1  -1 1344.33   61.07
   9   1   1 1368.14  120.88
   9  -1   1 1383.98   48.78
 -10   1   1 3716.19  117.40
 -10   1  -1 3649.96  119.95
 -10  -1  -1 3743.43  122.83
 -10  -1   1 3703.05  126.61
 -10   1  -1 3860.10  122.17
 -10   1   1 3691.34  118.65
 -10  -1   1 3868.42  124.95
 -10  -1  -1 3962.60  137.52
  10  -1  -1 3655.71  123.19
  10   1  -1 3768.29  134.47
  10   1   1 3604.58  132.46
  10  -1   1 3640.31  117.05
 -11   1   1 2095.93   78.54
 -11   1  -1 2080.26   78.16
 -11  -1  -1 2077.06   78.10
 -11  -1   1 2053.49   78.63
 -11   1  -1 2165.44   79.10
 -11   1   1 2131.18   79.79
 -11  -1   1 2140.27   79.46
 -11  -1  -1 2204.27   79.21
  11  -1  -1 2137.98   84.44
  11   1  -1 2055.04   89.02
  11   1   1 2035.01   93.34
  11  -1   1 1948.55   76.05
 -12   1   1 1647.08   66.69
 -12   1  -1 1671.06   69.81
 -12  -1  -1 1679.64   66.53
 -12  -1   1 1606.94   65.20
 -12   1  -1 1696.23   64.66
 -12   1   1 1740.06   68.05
 -12  -1   1 1651.16   64.54
 -12  -1  -1 1696.75   63.83
  12  -1  -1 1736.76   80.17
  12   1  -1 1623.43   76.54
  12   1   1 1681.22   83.15
  12  -1   1 1586.20   63.50
 -13   1   1 1740.55   83.49
 -13   1  -1 1724.33   84.01
 -13  -1  -1 1666.81   81.67
 -13  -1   1 1674.29   80.48
 -13   1  -1 1783.30   84.58
 -13   1   1 1797.22   86.89
 -13  -1   1 1741.18   83.72
 -13  -1  -1 1753.71   81.99
  13  -1  -1 1802.87   95.30
  13   1  -1 1766.25   95.03
  13   1   1 1764.44  109.66
  13  -1   1 1696.05   84.99
 -14   1   1 2224.17  131.04
 -14   1  -1 2205.64  126.76
 -14  -1  -1 2187.54  130.94
 -14  -1   1 2173.02  127.67
 -14   1  -1 2269.27  127.89
 -14   1   1 2286.49  130.35
 -14  -1   1 2217.15  125.88
 -14  -1  -1 2266.67  128.04
  14  -1  -1 2432.23  148.03
  14   1  -1 2269.94  138.85
  14   1   1 2323.29  146.71
  14  -1   1 2282.60  133.83
 -15   1   1 2315.00  168.78
 -15   1  -1 2275.62  164.08
 -15  -1  -1 2241.60  162.23
 -15  -1   1 2242.42  160.89
 -15   1  -1 2396.87  170.98
 -15   1   1 2296.58  165.32
 -15  -1   1 2342.34  167.74
 -15  -1  -1 2325.98  165.33
  15  -1  -1 2449.80  185.59
  15   1  -1 2440.24  183.22
  15   1   1 2489.45  197.45
  15  -1   1 2429.52  177.56
 -16   1   1  357.88   35.51
 -16   1  -1  374.88   38.58
 -16  -1  -1  354.12   45.01
 -16  -1   1  347.54   38.96
 -16   1  -1  377.51   37.15
 -16   1   1  376.05   38.48
 -16  -1   1  364.09   37.47
 -16  -1  -1  371.05   35.98
  16  -1  -1  392.13   44.39
  16   1  -1  408.80   48.66
  16   1   1  411.90  101.76
  16  -1   1  379.47   49.73
 -17   1  -1 1562.80  116.36
 -17   1   1 1584.89  117.23
 -17  -1  -1 1605.72  115.69
 -17  -1   1 1578.82  112.74
 -17   1  -1 1602.53  113.36
 -17   1   1 1589.92  114.26
 -17  -1   1 1599.15  114.38
 -17  -1  -1 1651.63  115.92
  17  -1  -1 1714.91  131.57
  17   1  -1 1748.72  136.07
  17   1   1 1871.45  153.43
 -18   1  -1  528.55   46.76
 -18   1   1  468.75   39.48
 -18  -1  -1  456.41   41.13
 -18  -1   1  460.07   41.59
 -18   1  -1  470.98   40.27
 -18   1   1  490.07   43.07
 -18  -1   1  494.49   49.05
 -18  -1  -1  466.02   38.21
  18  -1  -1  500.83   52.57
  18   1  -1  542.62   56.62
  18   1   1  500.16   57.09
 -19   1  -1 1783.25  152.50
 -19   1   1 1834.81  144.52
 -19  -1  -1 1841.85  148.81
 -19  -1   1 1833.63  145.75
 -19   1  -1 1876.51  146.85
 -19   1   1 1889.37  227.63
 -19  -1   1 1832.78  144.52
 -19  -1  -1 1899.00  227.09
  19   1  -1 2012.33  249.72
  19   1   1 1962.05  253.10
 -20   1  -1   57.98   25.90
 -20   1   1   49.74   31.96
 -20  -1  -1   58.53   30.26
 -20  -1   1   45.57   35.98
 -20   1  -1   69.80   14.47
 -20   1   1   64.20   15.50
 -20  -1   1   53.94   13.64
 -20  -1  -1   55.51   12.86
  20   1  -1   60.06   52.75
  20   1   1   60.05   48.22
 -21   1  -1 1321.91  120.11
 -21   1   1 1333.84  120.78
 -21  -1  -1 1365.80  131.60
 -21  -1   1 1387.28  124.62
 -21   1  -1 1376.26  122.88
 -21   1   1 1389.19  125.39
 -21  -1   1 1385.24  124.46
  21   1  -1 1629.72  199.67
  21   1   1 1746.53  212.34
 -22   1  -1   50.30   49.00
 -22   1   1   71.57   20.33
 -22  -1  -1   69.68   27.49
 -22  -1   1   49.64   47.62
 -22   1  -1   61.17   14.79
 -22   1   1   75.81   17.87
 -22  -1   1   69.42   16.93
  22   1  -1   65.50   65.44
 -23   1  -1 1300.30  232.37
 -23   1   1 1344.37  239.32
 -23  -1  -1 1348.43  248.63
 -23  -1   1 1353.92  240.70
 -23   1   1 1242.22  221.41
 -23   1  -1 1214.40  215.64
 -23  -1   1 1406.21  249.90
   0  -1  -2   47.89   11.06
   0  -1   2   59.20    6.13
   0   1   2   60.50    5.61
  -1  -1  -2  141.31   10.86
   1  -1  -2  163.66   14.43
  -1  -1   2  178.55   11.17
   1  -1   2  158.23   10.21
   1   1   2  196.74   11.45
  -1   1   2  161.77   10.07
  -2  -1  -2  412.04   21.93
   2  -1  -2  394.83   28.00
  -2  -1   2  471.87   24.35
   2  -1   2  429.77   21.21
  -2   1   2  435.13   21.30
  -2  -1   2  382.33   19.64
  -3  -1  -2   24.40    5.60
  -3  -1   2   29.85    5.45
   3  -1  -2   23.38    5.62
   3  -1   2   26.28    4.41
  -3   1  -2   24.99   17.13
   3   1   2   38.54   11.06
  -3   1   2   25.48    4.34
  -3  -1   2   26.28    5.06
  -4  -1  -2  166.46   11.77
  -4  -1   2  173.46   14.96
   4  -1  -2  187.69   12.81
   4  -1   2  190.23   12.78
   4   1   2  186.15   15.11
  -4   1  -2  186.66   19.12
  -4   1   2  173.28   12.16
  -4  -1   2  169.60   11.66
   4   1   2  146.12    7.34
   4   1  -2  167.17   13.27
  -5  -1  -2  377.71   21.03
  -5  -1   2  402.36   22.64
   5  -1  -2  433.15   22.05
   5  -1   2  392.20   21.36
  -5   1  -2  489.61   28.67
  -5   1   2  373.68   20.67
  -5  -1   2  395.78   21.59
   5   1  -2  382.57   23.46
  -6   1  -2  187.47   13.85
  -6  -1  -2  187.48   13.81
  -6  -1   2  176.65   13.21
   6  -1  -2  220.32   13.58
  -6   1  -2  220.59   16.57
  -6   1   2  243.15   15.59
  -6  -1   2  182.54   13.07
   6   1  -2  178.41   15.55
  -7   1  -2    8.54    6.66
  -7  -1   2    7.82    4.97
   7  -1  -2   10.00    3.78
  -7   1  -2    9.12    8.40
  -7   1   2    6.68    4.88
   7   1  -2    4.58    6.65
  -8   1  -2   95.49   10.48
  -8  -1  -2  100.55   10.89
  -8  -1   2   96.57    7.89
   8  -1  -2  108.70    8.72
  -8   1  -2  108.42   11.83
  -8  -1   2  103.46   10.54
  -8  -1  -2  105.78    7.21
   8   1  -2  100.77   14.55
   8   1   2   88.26   22.86
  -9   1  -2   52.34    8.33
  -9  -1   2   59.48    6.70
   9  -1  -2   75.79    7.75
  -9   1  -2   65.32    7.61
  -9  -1   2   63.05    8.75
  -9  -1  -2   60.34    5.56
   9   1  -2   71.34   26.52
   9   1   2   52.47   17.04
 -10   1   2    4.20    3.40
 -10   1  -2    2.32    5.81
 -10  -1  -2    4.54    7.41
 -10  -1   2    4.29    3.92
 -10   1  -2    2.29    3.52
 -10   1   2    5.70    4.91
 -10  -1   2   12.30    7.70
 -10  -1  -2    3.84    2.61
  10   1  -2    5.48    8.49
  10   1   2    5.72    9.03
 -11   1   2   27.79    5.43
 -11  -1  -2   34.28   27.20
 -11  -1   2   30.24    6.48
 -11   1  -2   31.33    5.44
 -11  -1   2   54.16    8.97
 -11  -1  -2   32.09    5.54
  11  -1  -2   30.09   23.95
  11   1  -2   31.64   29.34
  11   1   2   27.67   20.43
 -12   1   2   70.79   10.04
 -12   1  -2   78.30   17.00
 -12  -1   2   68.28    8.31
 -12   1  -2   71.15    8.52
 -12  -1   2   76.84   10.12
  12  -1  -2   73.69   21.69
  12   1  -2   70.97   20.62
  12   1   2  111.10   16.52
 -13   1   2   76.29    9.39
 -13   1  -2  101.84   14.96
 -13  -1  -2   78.66   13.40
 -13  -1   2   84.17   17.83
 -13   1  -2   78.92    9.81
 -13   1   2  134.18   15.65
 -13  -1   2   87.14   11.58
 -13  -1  -2   80.60    9.29
  13  -1  -2   84.56   25.56
  13   1  -2   83.52   32.30
  13   1   2   72.63   18.00
 -14   1   2   55.32   19.95
 -14   1  -2   63.69   15.90
 -14  -1   2   46.20   10.60
 -14   1  -2   40.34    7.84
 -14   1   2   71.89   11.93
 -14  -1   2   43.11    9.58
 -14  -1  -2   46.08    7.48
  14  -1  -2   50.67   16.34
  14   1  -2   47.44   39.16
  14   1   2   41.62   17.61
 -15   1   2   11.37    8.95
 -15   1  -2   11.18   13.55
 -15  -1   2   13.56   10.31
 -15   1  -2   12.92    5.03
 -15  -1  -2   20.90    6.67
  15  -1  -2   16.15   15.16
  15   1  -2   13.53   16.14
  15   1   2    9.72   14.02
 -16   1   2   66.26   17.52
 -16   1  -2   57.03   13.56
 -16  -1  -2   62.11   33.16
 -16  -1   2   63.06   15.18
 -16   1  -2   58.34   10.27
 -16   1   2   62.21   13.06
 -16  -1   2   62.76   11.99
 -16  -1  -2   72.46   11.13
  16  -1  -2   61.25   21.88
  16   1  -2   64.36   21.96
  16   1   2   65.45   46.79
 -17   1  -2  148.23   29.65
 -17   1   2  136.99   16.82
 -17  -1  -2  139.22   19.11
 -17  -1   2  142.36   16.95
 -17   1   2  151.39   19.63
 -17  -1  -2  127.49   14.50
  17  -1  -2  125.34   71.38
  17   1  -2  137.96   45.43
  17   1   2  124.52   35.16
 -18   1  -2    4.71    5.34
 -18   1   2    7.68    5.11
 -18  -1  -2    5.94   14.01
 -18  -1   2    3.37    4.52
 -18   1  -2    7.89    6.50
 -18   1   2    1.94    7.80
  18  -1  -2    5.21   13.11
  18   1  -2    5.90   10.11
  18   1   2    4.00   14.34
 -19   1  -2    4.95    6.74
 -19   1   2    4.90    4.29
 -19  -1  -2    5.43    5.86
 -19  -1   2   -0.07    6.49
 -19   1  -2    8.86    6.05
 -19   1   2    1.44    8.35
 -19  -1   2    4.48    7.87
  19  -1  -2    5.46    9.63
  19   1  -2    4.07    7.38
  19   1   2    5.23    4.91
 -20   1  -2    4.54   11.79
 -20   1   2    3.11    4.13
 -20  -1  -2    2.50    8.50
 -20   1   2    2.32    8.42
 -20  -1   2    4.59   12.09
  20   1  -2    4.20   10.24
  20   1   2    2.03    7.97
 -21   1  -2   71.24   29.62
 -21  -1  -2   60.82   48.66
 -21   1   2   68.93   17.72
 -21  -1   2   76.05   17.88
  21   1  -2   70.31   51.16
 -22   1  -2   -0.71    7.34
 -22  -1  -2   10.70    7.40
 -22   1   2    3.25    7.63
 -22  -1   2    2.36    7.22
  22   1  -2   -1.02   16.12
   0  -1  -3 7286.86  221.07
   0   1   3 8518.13  251.20
  -1  -1  -3    5.69    4.60
   1  -1  -3    4.37    4.26
  -1  -1   3    9.10    3.33
   1  -1   3    8.12    4.57
   1   1   3  -14.81    5.67
  -2   1  -3 7505.57  224.37
  -2  -1  -3 6852.40  208.83
  -2   1   3 7102.23  211.93
  -2  -1   3 6912.16  208.64
  -3   1  -3  429.02   22.74
  -3  -1  -3  416.97   24.54
   3   1  -3  366.94   21.88
   3  -1  -3  350.11   27.99
   3   1   3  401.17   16.86
  -3   1   3  398.20   35.42
  -3  -1   3  390.31   21.26
  -4   1  -3 3954.84  124.77
  -4  -1  -3 3919.97  124.40
   4   1  -3 3741.97  111.32
   4  -1  -3 3755.03  119.47
  -4  -1   3 4340.19  128.30
  -4   1  -3 4253.04  144.81
  -4   1   3 4005.96  124.19
   4   1   3 4185.25  121.97
  -4  -1   3 3918.94  122.88
  -5   1  -3  306.75   17.11
   5   1  -3  275.25   10.74
  -5  -1  -3  294.57   17.43
  -5  -1   3  339.32   13.07
   5  -1  -3  292.70   14.32
  -5   1  -3  332.52   23.24
  -5   1   3  285.48   17.00
  -5  -1   3  305.42   17.63
  -6   1  -3 4492.28  142.09
   6   1  -3 4304.54  126.66
  -6  -1  -3 4498.76  143.26
   6  -1  -3 4811.42  145.37
  -6  -1   3 4537.90  142.58
  -7   1  -3  684.25   33.24
  -7  -1  -3  698.26   32.72
  -7  -1   3  810.68   36.13
   7  -1  -3  783.40   28.60
  -7   1  -3  838.89   36.01
  -7   1   3  676.26   30.35
  -7  -1   3  693.55   32.22
   7   1  -3  653.91   34.06
  -8   1  -3 2721.64   98.70
  -8  -1  -3 2850.52  105.35
  -8  -1   3 2827.46   99.48
   8  -1  -3 3304.00  111.78
  -8   1  -3 3282.95  114.21
   8   1   3 3286.18  107.58
  -8   1   3 2652.02   95.55
  -8  -1   3 2848.17  102.96
   8   1  -3 2626.61  104.24
  -9   1  -3 1129.66   48.69
  -9  -1  -3 1106.27   54.05
  -9  -1   3  995.05   39.94
  -9   1  -3 1237.17   46.94
  -9   1   3 1050.89   45.24
  -9  -1   3 1147.20  105.06
   9   1  -3 1038.67   53.61
 -10   1   3 3192.66  140.31
 -10   1  -3 3235.40  148.29
 -10  -1  -3 3244.00  149.88
 -10  -1   3 2913.19  130.68
 -10   1  -3 3545.53  156.40
 -10   1   3 3008.31  137.65
 -10  -1   3 3252.04  149.29
  10   1  -3 2976.54  142.37
 -11   1   3 2064.51   93.93
 -11   1  -3 1996.01   96.43
 -11  -1  -3 1951.55   94.42
 -11  -1   3 1897.32   87.22
 -11   1  -3 2120.06   96.11
 -11   1   3 1899.64   91.59
 -11  -1   3 1999.37   95.94
  11   1  -3 1830.01  100.93
 -12   1   3 1194.51   71.07
 -12   1  -3 1171.72   72.34
 -12  -1  -3 1161.02   72.71
 -12  -1   3 1147.69   66.96
 -12   1  -3 1232.02   70.28
 -12   1   3 1108.48   67.98
 -12  -1   3 1151.43   70.20
 -12  -1  -3 1216.18   68.43
  12   1  -3 1162.79   80.98
 -13   1   3 1400.82  103.09
 -13   1  -3 1448.18  108.28
 -13  -1  -3 1373.38  102.94
 -13  -1   3 1454.83  107.53
 -13   1  -3 1445.77  103.42
 -13   1   3 1396.43  104.07
 -13  -1   3 1411.71  104.71
  13  -1  -3 1325.36  102.80
  13   1  -3 1438.27  112.67
 -14   1   3 1099.13   80.82
 -14   1  -3 1098.14   85.86
 -14  -1  -3 1018.38   79.02
 -14  -1   3 1140.33   84.35
 -14   1  -3 1148.39   83.54
 -14   1   3 1057.36   81.40
 -14  -1   3 1062.29   81.35
  14  -1  -3 1081.62   87.34
  14   1  -3 1023.55   87.29
 -15   1  -3 2136.01  162.56
 -15   1   3 2161.20  147.66
 -15  -1  -3 2077.25  148.73
 -15   1   3 2167.05  153.13
 -15  -1   3 2098.80  147.51
  15  -1  -3 2118.46  156.24
  15   1  -3 2014.74  148.95
 -16   1  -3  501.39   44.95
 -16  -1  -3  485.70   50.62
 -16   1   3  490.84   43.58
 -16  -1   3  482.62   41.95
  16  -1  -3  457.51   45.15
  16   1  -3  493.97   49.44
 -17   1  -3 1339.56  100.01
 -17  -1  -3 1335.53   99.89
 -17   1   3 1363.61  101.44
 -17  -1   3 1357.90  104.59
  17  -1  -3 1343.12  122.23
  17   1  -3 1248.91  100.07
 -18   1  -3  566.29   53.42
 -18  -1  -3  558.79   52.48
 -18   1   3  581.01   53.41
 -18  -1   3  588.44   53.92
  18  -1  -3  588.50   66.33
  18   1  -3  595.50   62.61
 -19   1  -3 1623.79  198.85
 -19  -1  -3 1688.23  205.34
 -19   1   3 1621.36  196.64
 -19  -1   3 1667.27  202.38
  19  -1  -3 1716.39  218.72
  19   1  -3 1688.60  219.81
 -20   1  -3   95.46   18.70
 -20  -1  -3   88.09   65.83
 -20   1   3   91.87   19.62
 -20  -1   3  103.29   21.84
  20  -1  -3  107.59   39.77
  20   1  -3   96.22   63.79
 -21   1  -3 1152.41  136.59
 -21  -1  -3 1131.13  138.72
 -21   1   3 1094.42  127.90
 -21  -1   3 1187.98  138.71
  21   1  -3 1171.31  146.75
   0   1  -4  130.51    7.92
   0  -1  -4  129.39   12.20
   0   1   4  132.62    8.55
  -1   1  -4    1.22    4.26
   1   1  -4    0.44    1.04
  -1  -1  -4    0.82    2.68
   1  -1  -4   -0.07    3.94
  -1   1   4    3.29    3.09
   1   1   4    0.76    1.60
  -2   1  -4   28.33    4.60
   2   1  -4   27.15    4.21
  -2  -1  -4   31.97    8.64
   2  -1  -4   25.02    6.87
  -2   1   4   25.80    4.40
   2   1   4   24.72    2.72
  -2  -1   4   28.68    5.38
  -3   1  -4    3.64    3.54
   3   1  -4    2.90    1.92
  -3  -1  -4    4.07    3.81
   3   1  -4    3.67    2.92
   3  -1  -4    2.13    7.42
  -3  -1  -4    4.24    3.22
  -3   1   4    4.43    3.91
   3   1   4    3.16    1.18
  -3  -1   4    4.45    3.81
  -4   1  -4  138.42   11.16
  -4  -1  -4  141.31   13.55
   4  -1  -4  117.71   10.75
  -4   1  -4  113.76   14.31
  -4   1   4  127.80    9.89
  -4  -1   4  141.94   12.43
  -5  -1  -4   14.84   11.34
   5  -1  -4   13.91    3.71
  -5   1  -4   16.38   11.46
  -5   1   4   14.49    5.78
  -5  -1   4   12.89    6.49
  -6   1  -4   33.48    7.07
  -6  -1  -4   34.97   11.80
   6  -1  -4   41.39    4.80
  -6   1  -4   37.33    9.41
  -6   1   4   31.00    5.91
  -6  -1   4   31.82    7.10
  -7  -1  -4   10.82   10.47
   7  -1  -4   12.06    2.67
  -7   1  -4    7.31   10.13
  -7   1   4   12.88    7.55
  -7  -1   4   11.90    6.32
  -8   1  -4  177.38   17.47
  -8  -1  -4  169.28   16.84
  -8   1  -4  190.53   13.10
  -8   1   4  162.25   14.91
  -8  -1   4  166.01   15.74
  -9   1   4   45.75    4.53
  -9   1  -4   91.46   30.68
  -9  -1  -4   52.06   17.17
  -9   1  -4   53.98    6.39
  -9   1   4   46.93   10.48
  -9  -1   4   92.97   12.60
   9   1  -4   46.28   18.20
 -10  -1  -4    4.19   20.27
 -10   1  -4   12.18    3.78
 -10  -1   4    9.09    6.41
  10   1  -4    7.70    6.41
 -11   1  -4    7.69    6.11
 -11  -1  -4   10.50    8.91
 -11   1   4    6.83    7.58
 -11  -1   4    4.65    4.56
  11   1  -4    6.46    7.37
 -12  -1  -4   56.78   12.54
 -12   1   4   53.30    9.88
 -12  -1   4   56.43   11.31
  12   1  -4   50.54   15.03
 -13   1  -4   41.44   29.48
 -13  -1  -4   43.82   24.15
 -13  -1   4   38.29    9.62
  13   1  -4   41.55   32.92
 -14   1  -4   -0.53    6.84
 -14  -1  -4    1.62    6.23
 -14   1   4   -1.26    6.51
 -14  -1   4   -1.05    6.57
  14  -1  -4    2.52    3.70
  14   1  -4    0.89    5.06
 -15   1  -4    8.18    7.86
 -15  -1  -4    7.94   10.55
 -15   1   4    7.13    9.81
 -15  -1   4   12.16   11.51
  15  -1  -4    7.59    9.26
  15   1  -4    3.72    5.80
 -16   1  -4   38.01   32.77
 -16  -1  -4   43.52   37.52
 -16   1   4   36.83   10.58
 -16  -1   4   36.46   12.52
  16  -1  -4   38.64   35.50
  16   1  -4   37.66   31.55
 -17   1  -4   38.85   28.58
 -17  -1  -4   43.81   31.88
 -17   1   4   34.75   10.76
 -17  -1   4   45.60   14.79
  17  -1  -4   36.92   40.27
  17   1  -4   36.09   35.25
 -18   1  -4    0.26    5.95
 -18  -1  -4    3.50    6.95
 -18   1   4   -1.01    8.68
 -18  -1   4    1.99    8.88
  18  -1  -4    3.47    7.17
  18   1  -4   -1.02    5.26
 -19  -1  -4   15.77   10.89
 -19   1   4   18.40   13.04
 -19  -1   4   13.50    9.69
  19  -1  -4    6.83   17.48
  19   1  -4   15.29   18.98
 -20   1  -4   14.04   13.83
 -20  -1  -4    5.76    7.47
 -20   1   4   20.47   12.47
 -20  -1   4   13.58   11.42
  20  -1  -4   11.22   15.14
  20   1  -4   10.05   15.83
   0   1  -5 3119.51  137.14
   0  -1  -5 3011.21  140.96
   0   1   5 2808.99  123.46
  -1   1  -5    7.76    5.45
   1   1  -5    6.23    4.85
  -1  -1  -5    5.22    4.98
   1  -1  -5    3.34    6.30
  -1   1   5    7.02    3.84
   1   1   5    6.47    2.72
  -2   1  -5 3342.86  149.54
   2   1  -5 3082.53  133.99
  -2  -1  -5 3560.63  164.87
   2  -1  -5 3150.49  145.67
  -2   1   5 2887.34  128.17
   2   1   5 3515.91  152.78
  -2  -1   5 3232.86  146.42
  -3   1  -5  177.40   16.39
  -3  -1  -5  199.30   18.95
   3  -1  -5  199.10   20.76
  -3   1   5  163.23   14.32
  -3  -1   5  193.63   16.63
  -4   1  -5 2735.60  127.64
  -4  -1  -5 2816.88  140.55
  -4   1  -5 2229.78  122.94
  -4   1   5 2620.89  120.16
  -4  -1   5 2815.65  129.95
  -5   1  -5  221.12   19.44
  -5  -1  -5  246.47   21.63
  -5   1  -5  220.19   20.77
  -5   1   5  215.61   20.80
  -5  -1   5  246.37   21.66
  -6   1  -5 3058.83  172.92
  -6  -1  -5 3232.27  239.10
  -6   1   5 2939.62  162.98
  -6  -1   5 3215.85  227.76
  -7   1  -5  857.44   53.83
  -7  -1  -5  937.06   66.91
  -7   1   5  796.41   49.93
  -7  -1   5  851.24   54.51
  -8   1  -5 2074.13  150.51
  -8  -1  -5 2183.21  165.30
  -8   1   5 1932.51  139.21
  -8  -1   5 2131.80  154.86
  -9   1  -5  607.48   53.53
  -9  -1  -5  662.63   57.33
  -9   1   5  561.05   45.78
  -9  -1   5  678.47   56.89
 -10   1  -5 1977.86  170.93
 -10  -1  -5 1979.81  172.39
 -10   1   5 1879.40  162.68
 -10  -1   5 1988.73  172.88
  10   1  -5 1866.01  171.27
 -11   1  -5 1139.75  112.60
 -11  -1  -5 1114.18   88.10
 -11   1   5 1025.78   79.80
 -11  -1   5 1157.93   88.90
  11   1  -5 1103.36   90.89
 -12   1  -5  989.15   76.82
 -12  -1  -5 1011.84   84.48
 -12   1   5  948.74   98.69
 -12  -1   5  992.46   75.18
  12   1  -5  982.41   84.36
 -13   1  -5  697.58   58.66
 -13  -1  -5  678.38   56.05
 -13   1   5  640.23   52.16
 -13  -1   5  673.94   54.37
  13   1  -5  700.95   64.07
 -14   1  -5  643.19   59.09
 -14  -1  -5  638.07   58.25
 -14   1   5  610.23   56.57
 -14  -1   5  616.17   54.90
  14   1  -5  599.10   58.96
 -15   1  -5 1351.96  167.11
 -15  -1  -5 1362.34  167.53
 -15   1   5 1176.80  143.93
 -15  -1   5 1298.28  158.51
  15  -1  -5 1139.16  145.68
  15   1  -5 1308.29  167.74
 -16   1  -5  334.08   48.98
 -16  -1  -5  323.23   49.75
 -16   1   5  311.39   45.27
 -16  -1   5  295.78   42.35
  16  -1  -5  308.72  119.75
  16   1  -5  307.52   48.46
 -17   1  -5  957.44   92.22
 -17  -1  -5  919.87   93.38
 -17   1   5  886.62   84.11
 -17  -1   5  961.27   90.42
  17  -1  -5  910.95   93.26
  17   1  -5  875.21  102.32
 -18   1  -5  219.82   34.91
 -18  -1  -5  190.05   49.32
 -18   1   5  189.80   30.88
 -18  -1   5  212.80   34.00
  18  -1  -5  184.40   35.53
  18   1  -5  203.96   81.25
 -19   1  -5 1182.31  215.63
 -19  -1  -5 1163.11  209.02
 -19   1   5 1047.62  187.56
 -19  -1   5 1223.81  219.09
  19  -1  -5 1043.21  192.81
  19   1  -5 1084.10  198.00
   0  -1  -6  212.34   23.51
  -1   1  -6    2.85    2.33
  -1  -1  -6    4.28    4.39
  -1   1   6    2.29    3.89
  -2   1  -6    3.77    3.47
  -2  -1  -6    4.76    4.51
  -2   1   6    2.06    2.80
  -3   1  -6    4.27    4.85
  -3  -1  -6    3.22    4.63
  -3   1   6    5.25    4.85
  -3  -1   6    1.84    4.44
  -4   1  -6  100.96   15.81
  -4  -1  -6  125.03   19.43
  -4   1   6   86.28   11.36
  -4  -1   6  109.47   15.44
  -5   1  -6    1.30    4.60
  -5  -1  -6    2.95    4.66
  -5   1   6    4.11    2.93
  -5  -1   6   -0.16    4.71
  -6   1  -6   -0.06    4.51
  -6  -1  -6    2.49    5.33
  -6   1   6    1.38    4.20
  -6  -1   6    1.60    5.32
  -7   1  -6    9.46    8.00
  -7  -1  -6   11.28    6.40
  -7   1   6    8.75    5.97
  -7  -1   6   10.39    7.00
  -8   1  -6   81.46   12.08
  -8  -1  -6   89.49   14.70
  -8   1   6   73.52   12.16
  -8  -1   6   87.96   14.24
  -9   1  -6    1.51    3.58
  -9  -1  -6    7.92    7.85
  -9   1   6    5.60    7.17
  -9  -1   6   14.66    9.18
 -10   1  -6    3.95    5.99
 -10  -1  -6    7.37    7.02
 -10   1   6    7.67    5.69
 -10  -1   6    5.87    7.33
  10   1  -6    9.80   11.76
 -11   1  -6   33.94   33.15
 -11  -1  -6   37.78   28.23
 -11   1   6   31.03    8.98
 -11  -1   6   34.37   10.33
  11   1  -6   34.02   38.37
 -12   1  -6   57.46   12.61
 -12  -1  -6   62.43   53.50
 -12   1   6   53.98   13.05
 -12  -1   6   62.76   12.87
  12   1  -6   53.92   46.71
 -13   1  -6   29.15   29.62
 -13  -1  -6   31.71   19.44
 -13   1   6   28.91   10.33
 -13  -1   6   31.38   10.87
  13   1  -6   30.61   22.45
 -14   1  -6    3.58   11.67
 -14  -1  -6    4.34    6.56
 -14   1   6    9.27    9.87
 -14  -1   6    1.99    9.48
  14   1  -6    6.42    6.10
 -15   1  -6   18.85   24.87
 -15  -1  -6   19.13   16.37
 -15   1   6   20.28   10.07
 -15  -1   6   24.36   10.21
  15   1  -6   16.98   19.70
 -16   1  -6   18.37   14.73
 -16  -1  -6   19.10   11.12
 -16   1   6   25.33   10.61
 -16  -1   6   15.12   10.21
  16  -1  -6   19.34   22.53
  16   1  -6   22.13   20.40
  -5  -1  -7   94.77   16.55
  -5   1   7   80.80   13.50
  -5  -1   7   87.86   14.80
  -6   1  -7 1273.96  102.50
  -6  -1  -7 1724.63  139.27
  -6   1   7 1358.75  108.34
  -6  -1   7 1533.93  122.75
  -7   1  -7  464.90   43.25
  -7  -1  -7  593.44   55.09
  -7   1   7  459.76   45.70
  -7  -1   7  523.89   48.21
  -8   1  -7  892.45  110.40
  -8  -1  -7 1056.35  130.93
  -8   1   7  871.22  106.89
  -8  -1   7  973.85  120.44
  -9   1  -7  204.74   34.34
  -9  -1  -7  254.24   37.96
  -9   1   7  187.99   29.13
  -9  -1   7  224.15   33.27
 -10   1  -7  767.42   72.19
 -10  -1  -7  848.80   82.05
 -10   1   7  694.30   64.85
 -10  -1   7  777.14   74.29
 -11   1  -7  576.89   58.29
 -11  -1  -7  694.63   74.25
 -11   1   7  540.73   53.21
 -11  -1   7  594.53   60.70
  11   1  -7  596.73   65.92
 -12   1  -7  511.64   64.35
 -12  -1  -7  607.75   95.06
 -12   1   7  492.12   60.25
 -12  -1   7  519.28   65.41
  12   1  -7  618.95   83.61
 -13   1  -7  512.08   94.70
 -13  -1  -7  575.38  107.07
 -13   1   7  481.15   88.05
 -13  -1   7  496.15   91.59
  13   1  -7  582.55  111.70
 -14   1  -7  471.44   87.50
 -14  -1  -7  527.58  100.90
 -14   1   7  460.69   85.21
 -14  -1   7  483.59   90.05
  14   1  -7  483.79   94.34
  -8  -1   8   19.59    9.71
  -9  -1   8    7.08    9.88
   0  -2   0 7774.44  254.40
   0   2   0 6683.10  218.78
   0   2   0 6249.69  254.16
  -1  -2   0  150.35   21.76
   1  -2   0  177.72   23.25
  -1   2   0  171.13   20.90
   1   2   0  185.72   18.78
  -1   2   0  155.99   15.28
  -2  -2   0 6870.52  223.84
   2  -2   0 7098.03  228.62
   2   2   0 7527.56  236.41
  -3  -2   0   18.79   13.24
   3  -2   0   19.36    7.33
  -3   2   0   14.31   11.91
   3   2   0   11.27   10.45
  -4  -2   0 6190.95  255.06
   4  -2   0 6465.82  264.10
  -4   2   0 7218.95  229.25
   4   2   0 5920.62  244.17
  -5  -2   0  876.47   46.10
   5  -2   0  940.62   48.28
  -5   2   0 1053.20   53.86
   5   2   0  839.39  110.59
  -6  -2   0 7220.71  224.74
   6  -2   0 7212.16  224.02
   6   2   0 7570.78  248.24
  -7  -2   0  389.34   22.85
   7  -2   0  431.80   25.03
  -7   2   0  425.67   25.41
   7   2   0  396.68  382.00
  -8  -2   0 3957.89  129.18
   8  -2   0 4128.57  134.16
  -8   2   0 4264.93  138.54
   8  -2   0 3883.57  118.18
   8   2   0 4070.18  145.79
  -9  -2   0 2147.09   76.87
   9  -2   0 1989.73   71.89
  -9   2   0 2063.29   75.64
  -9  -2   0 2049.70   70.96
   9  -2   0 2184.47   70.94
   9   2   0 2060.69   87.37
 -10  -2   0 2990.92  114.34
  10  -2   0 2548.54   95.22
 -10   2   0 2658.47   99.24
 -10  -2   0 2633.29   95.62
  10  -2   0 2720.71   95.31
  10   2   0 2593.53  110.35
 -11  -2   0 1650.76   67.41
  11  -2   0 1589.08   64.36
 -11   2   0 1612.27   65.80
 -11  -2   0 1621.26   63.58
  11  -2   0 1634.70   61.74
  11   2   0 1618.58   81.48
 -12  -2   0 1600.02   89.49
  12  -2   0 1551.47   77.27
 -12   2   0 1548.06   77.57
 -12  -2   0 1545.60   86.29
  12  -2   0 1484.28   74.22
  12   2   0 1546.18   90.41
 -13   2   0 2276.51  131.34
 -13  -2   0 2370.71  136.69
 -13   2   0 2317.66  132.92
 -13  -2   0 2296.31  130.28
  13  -2   0 2264.54  129.59
  13   2   0 2343.44  145.86
 -14   2   0  764.07   62.77
 -14  -2   0  734.11   66.64
 -14   2   0  795.96   63.17
 -14  -2   0  727.71   61.27
  14   2   0  733.98  116.77
 -15   2   0 1753.57  129.90
 -15  -2   0 1720.53  127.10
 -15   2   0 1742.17  128.58
 -15  -2   0 1694.03  124.10
  15   2   0 1803.63  149.74
 -16   2   0  830.76   79.41
 -16  -2   0  825.04   75.84
 -16   2   0  861.65   79.57
 -16  -2   0  798.40   72.16
  16   2   0  875.29   90.67
 -17   2   0 1969.28  148.61
 -17  -2   0 1918.39  136.98
 -17   2   0 1923.68  137.13
 -17  -2   0 1920.08  135.77
  17   2   0 2161.85  168.09
 -18   2   0  440.56   40.05
 -18  -2   0  411.90   37.63
 -18   2   0  424.71   38.07
 -18  -2   0  410.32   43.78
  18   2   0  491.72   99.77
 -19   2   0 1094.95   92.30
 -19  -2   0 1110.04   93.17
 -19   2   0 1127.33   93.79
 -19  -2   0 1065.14   87.36
  19   2   0 1334.96  125.70
 -20   2   0   96.21   36.38
 -20  -2   0   94.36   48.74
 -20   2   0   94.59   18.29
 -20  -2   0   93.02   21.15
  20   2   0  101.12   87.23
 -21   2   0 1397.35  160.86
 -21  -2   0 1477.49  262.65
 -21   2   0 1392.25  160.09
 -21  -2   0 1444.00  255.31
  21   2   0 1905.22  348.33
 -22   2   0   66.28   29.28
 -22  -2   0   67.71   30.50
 -22   2   0   67.29   19.61
 -22  -2   0   77.49   18.81
  22   2   0  117.44   72.22
   0  -2  -1  451.16   35.63
   0  -2   1  408.19   28.83
   0   2   1  538.09   35.46
   0   2  -1  439.21   24.44
  -1  -2  -1  115.07   18.44
   1  -2  -1  109.77   16.89
  -1  -2   1   98.52   13.77
   1  -2   1  111.36   15.82
  -1   2  -1  100.87   15.44
   1   2   1  112.85   22.44
  -1   2   1  128.91   15.55
   1   2  -1   97.26   10.44
  -1   2  -1   98.34   15.38
  -2  -2  -1  768.76   44.25
  -2  -2   1  715.01   42.85
   2  -2  -1  603.05   39.60
   2  -2   1  723.50   39.38
   2   2   1  704.37   41.54
  -2   2  -1  717.21   50.51
   2   2  -1  748.31   39.32
  -2   2  -1  695.40   33.46
   2   2   1  690.12   39.35
  -3  -2  -1  391.10   27.34
  -3  -2   1  342.19   28.40
   3  -2  -1  355.10   29.77
   3  -2   1  373.41   25.09
  -3   2  -1  397.42   33.37
  -3   2   1  413.63   27.30
   3   2  -1  334.75   22.21
  -3   2  -1  340.62   18.73
   3   2   1  337.70   26.18
  -4  -2  -1  295.99   21.33
  -4  -2   1  304.04   25.11
   4  -2  -1  324.49   26.04
   4  -2   1  308.54   21.63
  -4   2  -1  331.03   35.89
  -4   2   1  311.98   21.56
   4   2  -1  287.52   21.09
   4   2   1  294.37   24.35
  -5  -2  -1   19.53   17.44
  -5  -2   1   17.00   13.92
   5  -2  -1   20.56    7.81
   5  -2   1   16.69    6.42
  -5   2  -1   21.62   20.78
  -5   2   1   19.61   16.64
   5   2  -1   20.55   23.00
   5   2   1   18.70   13.95
  -6  -2  -1  701.48   33.39
  -6  -2   1  705.31   36.31
   6  -2  -1  750.74   40.76
   6  -2   1  733.01   34.58
  -6   2  -1  760.73   42.01
  -6   2   1  761.71   36.39
   6   2  -1  689.53   40.80
   6   2   1  694.07   40.42
  -7  -2  -1  667.82   39.36
  -7  -2   1  689.63   36.28
   7  -2  -1  715.83   34.07
   7  -2   1  672.57   32.01
  -7   2  -1  727.36   37.99
  -7   2   1  663.47   34.50
  -7  -2   1  634.65   28.55
   7   2  -1  639.04   36.15
   7   2   1  698.84   43.97
  -8  -2  -1  287.92   21.23
  -8  -2   1  259.86   18.16
   8  -2   1  239.98   17.10
  -8   2  -1  265.48   32.25
  -8   2   1  256.53   18.30
  -8  -2   1  233.97   15.76
  -9  -2  -1    5.18    8.44
  -9  -2   1    4.08    5.44
   9  -2  -1    8.66    6.82
   9  -2   1    5.65    5.56
  -9   2  -1    6.29    9.60
  -9   2   1    8.71    8.69
  -9  -2   1    5.69    8.33
 -10  -2  -1  291.78   21.14
 -10  -2   1  296.41   21.78
  10  -2  -1  288.22   19.56
  10  -2   1  280.46   19.56
 -10   2  -1  288.87   21.07
 -10   2   1  282.52   20.00
 -10  -2   1  283.51   18.64
  10   2  -1  271.95   24.78
  10   2   1  311.37   30.09
 -11  -2  -1  255.48   21.38
 -11  -2   1  248.33   19.49
  11  -2  -1  247.70   18.17
  11  -2   1  238.96   18.08
 -11   2  -1  254.05   19.43
 -11   2   1  238.65   18.31
 -11  -2   1  236.08   17.02
 -11  -2  -1  255.62   16.73
  11  -2  -1  253.39   19.38
  11   2  -1  258.51   26.26
  11   2   1  264.62   56.65
 -12   2  -1  176.32   18.34
 -12  -2  -1  186.83   18.43
 -12  -2   1  190.24   26.86
  12  -2  -1  177.99   16.67
 -12   2  -1  180.83   17.10
 -12   2   1  162.91   16.00
 -12  -2   1  182.53   17.46
 -12  -2  -1  184.45   15.30
  12  -2  -1  185.63   20.22
  12   2  -1  175.89   43.51
  12   2   1  203.99   27.30
 -13   2  -1   24.36   27.32
 -13  -2  -1   26.80   14.96
 -13  -2   1   23.98   24.68
  13  -2  -1   26.37    7.39
 -13   2  -1   21.81    7.43
 -13   2   1   23.85    8.52
 -13  -2   1   24.00    7.77
 -13  -2  -1   23.17    6.21
  13  -2  -1   22.85   23.29
  13   2  -1   24.00   21.79
  13   2   1   24.72   19.79
 -14   2   1   63.40   11.72
 -14   2  -1   63.76   20.63
 -14  -2  -1   64.06   30.06
 -14  -2   1   66.12   13.43
 -14   2  -1   65.80   12.22
 -14   2   1   59.53   12.79
 -14  -2   1   61.80   11.20
 -14  -2  -1   61.46    9.48
  14  -2  -1   65.40   14.64
  14   2  -1   68.59   23.75
  14   2   1   72.72   29.49
 -15   2   1  163.62   20.56
 -15   2  -1  177.78   22.44
 -15  -2  -1  173.11   26.69
 -15  -2   1  203.01   25.13
 -15   2  -1  174.34   21.09
 -15   2   1  176.42   21.87
 -15  -2   1  166.73   20.94
 -15  -2  -1  179.97   20.80
  15  -2  -1  187.63   46.90
  15   2  -1  173.60   47.13
  15   2   1  211.81  104.56
 -16   2   1   79.32   17.67
 -16   2  -1   91.56   15.18
 -16  -2  -1   91.78   22.58
 -16  -2   1   97.83   27.08
 -16   2  -1   94.93   13.83
 -16   2   1   86.35   14.27
 -16  -2   1   97.57   15.66
 -16  -2  -1   88.07   12.13
  16   2  -1   99.13   30.83
  16   2   1  108.02   84.15
 -17   2   1   91.39   33.75
 -17   2  -1   71.03   14.34
 -17  -2  -1   77.57   16.45
 -17  -2   1   92.40   24.15
 -17   2  -1   83.29   14.28
 -17   2   1   78.05   16.53
 -17  -2   1   89.79   13.59
 -17  -2  -1   83.29   12.65
  17   2  -1   94.73   27.47
  17   2   1  102.99   36.72
 -18   2   1   20.65   17.17
 -18   2  -1   23.08   19.46
 -18  -2  -1   19.51   21.33
 -18  -2   1   18.84   14.03
 -18   2  -1   21.37    8.91
 -18   2   1   19.23   12.15
 -18  -2   1   19.85   10.63
 -18  -2  -1   22.50   10.58
  18   2  -1   26.22   15.41
  18   2   1   34.23   17.72
 -19   2   1  235.63   39.23
 -19   2  -1  252.55   37.11
 -19  -2  -1  248.47   37.04
 -19  -2   1  268.48   86.74
 -19   2  -1  252.63   37.00
 -19   2   1  240.71   35.76
 -19  -2   1  242.00   34.96
 -19  -2  -1  253.56   35.41
  19   2  -1  312.19  136.77
  19   2   1  307.26   62.40
 -20   2   1    2.57    2.92
 -20   2  -1    3.25    6.20
 -20  -2  -1    4.43    7.74
 -20  -2   1   -0.39    8.60
 -20   2  -1    0.82    6.46
 -20   2   1    0.60    7.99
 -20  -2   1    0.71    6.93
 -20  -2  -1   -1.38    6.61
  20   2  -1    5.55   13.62
  20   2   1    4.48   10.40
 -21   2  -1   23.05   10.55
 -21   2   1   16.68   12.47
 -21  -2  -1   22.92   14.59
 -21  -2   1   26.42   27.45
 -21   2  -1   26.08   10.79
 -21   2   1   15.59    9.38
 -21  -2   1   19.25   18.21
  21   2  -1   32.79   22.49
  21   2   1   27.82   14.39
 -22   2   1    3.90    4.25
 -22   2  -1    6.08    8.14
 -22  -2  -1   10.81   13.38
 -22  -2   1    6.77    7.30
 -22   2  -1   11.46   10.72
 -22   2   1    4.78    9.62
 -22  -2   1    2.41    8.77
  22   2  -1    5.51   13.64
  22   2   1    8.77   18.93
   0  -2  -2 6751.29  222.40
   0  -2   2 7293.94  227.14
   0   2  -2 7037.49  216.69
  -1  -2  -2  182.66   18.94
   1  -2  -2  204.08   25.94
  -1  -2   2  198.82   18.58
   1  -2   2  191.62   16.30
   1   2   2  221.46   34.14
  -1   2   2  220.42   29.40
  -1   2  -2  184.48   47.47
   1   2  -2  200.89   17.16
  -2  -2  -2 6281.61  258.88
   2  -2  -2 6244.64  263.25
  -2  -2   2 6371.01  260.96
   2  -2   2 6484.85  261.20
   2   2   2 6831.66  214.43
  -2   2  -2 6507.03  197.70
   2   2  -2 6222.08  250.75
  -3  -2  -2  550.15   32.89
  -3  -2   2  536.64   34.31
   3  -2   2  576.16   31.21
  -3   2  -2  518.28   37.60
   3   2   2  648.96   50.23
  -3   2   2  670.91   42.48
  -3   2  -2  602.79   28.75
   3   2  -2  623.57   35.60
  -4  -2  -2 5523.63  195.89
  -4  -2   2 6324.87  223.15
   4  -2  -2 5447.63  198.23
   4  -2   2 6281.13  213.68
   4   2   2 6572.27  228.14
  -4   2  -2 5532.89  205.89
  -4   2   2 6079.99  206.57
  -4   2  -2 6290.87  206.63
   4   2  -2 5653.38  195.44
  -5  -2  -2 1077.13   45.82
  -5  -2   2 1078.69   53.20
   5  -2  -2 1172.57   53.46
   5  -2   2 1095.59   44.37
  -5   2  -2 1154.45   63.20
  -5   2   2 1105.04   45.81
  -5   2  -2 1274.09   44.33
   5   2  -2 1173.39   52.26
  -6  -2  -2 4472.34  149.02
  -6  -2   2 4261.77  143.77
   6  -2  -2 4680.66  153.52
   6  -2   2 4495.35  143.90
  -6   2  -2 5013.97  168.29
  -6   2   2 4645.72  148.53
  -6  -2   2 4070.12  130.10
  -6   2  -2 4911.74  144.77
   6   2  -2 4525.60  158.19
  -7  -2  -2  673.04   35.64
  -7  -2   2  714.16   38.79
   7  -2  -2  632.17   31.73
   7  -2   2  597.49   29.73
  -7   2  -2  672.44   35.25
  -7   2   2  587.47   28.99
  -7  -2   2  554.47   27.11
   7   2  -2  668.66   38.79
   7   2   2  556.68   35.73
  -8  -2  -2 3224.76  121.55
  -8  -2   2 2984.73  113.30
   8  -2  -2 3245.41  116.16
   8  -2   2 3198.08  115.74
  -8   2  -2 3403.79  130.19
  -8   2   2 3226.97  116.44
  -8  -2   2 2975.73  107.12
   8   2  -2 3289.26  125.29
   8   2   2 2929.90  116.63
  -9  -2  -2 1293.26   61.44
  -9  -2   2 1332.11   57.69
   9  -2  -2 1314.55   53.79
   9  -2   2 1276.63   54.13
  -9   2  -2 1394.53   65.81
  -9   2   2 1248.52   53.13
  -9  -2   2 1244.61   52.00
   9   2  -2 1231.43   58.75
   9   2   2 1115.51   58.49
 -10  -2  -2 2446.75   94.71
 -10  -2   2 2477.77   96.99
  10  -2  -2 2446.81   90.94
  10  -2   2 2371.32   90.09
 -10   2  -2 2562.72   99.26
 -10   2   2 2413.45   91.84
 -10  -2   2 2393.40   90.09
  10   2  -2 2366.61   98.00
  10   2   2 2236.44   99.01
 -11   2  -2  936.10   52.74
 -11  -2  -2  935.08   53.30
 -11  -2   2  886.26   50.93
  11  -2  -2  922.21   48.45
 -11   2  -2  924.42   50.79
 -11   2   2  884.79   49.48
 -11  -2   2  901.00   49.40
  11   2  -2  947.26   69.55
  11   2   2  828.70   60.89
 -12   2  -2 1682.58  102.75
 -12  -2  -2 1641.17  110.12
 -12  -2   2 1553.97   92.23
  12  -2  -2 1663.99   96.32
 -12   2  -2 1615.67   94.55
 -12   2   2 1568.00   93.34
 -12  -2   2 1595.59   99.43
  12   2  -2 1528.77   97.54
  12   2   2 1440.20   96.88
 -13   2  -2 2199.71  160.66
 -13  -2  -2 2243.65  164.74
 -13  -2   2 2158.58  156.19
  13  -2  -2 2186.57  156.63
 -13   2  -2 2160.54  155.51
 -13   2   2 2075.64  150.77
 -13  -2   2 2118.08  153.84
  13  -2  -2 2026.34  152.88
  13   2  -2 2061.74  155.50
  13   2   2 1922.33  148.90
 -14   2   2 1174.64   87.86
 -14   2  -2 1220.90   94.29
 -14  -2  -2 1205.56  107.60
 -14  -2   2 1207.06   91.34
 -14   2  -2 1189.09   89.41
 -14   2   2 1151.99   88.19
 -14  -2   2 1160.14   88.07
  14  -2  -2 1191.26   94.96
  14   2  -2 1179.62   98.08
  14   2   2 1016.87   85.78
 -15   2   2 1244.77  113.12
 -15   2  -2 1424.05  131.78
 -15  -2  -2 1323.89  117.88
 -15  -2   2 1322.61  116.56
 -15   2  -2 1293.99  113.46
 -15   2   2 1295.28  115.47
 -15  -2   2 1294.01  114.04
  15  -2  -2 1257.32  116.96
  15   2  -2 1256.65  117.15
  15   2   2 1187.92  114.31
 -16   2   2  646.82   51.06
 -16   2  -2  652.32   62.65
 -16  -2  -2  632.95   53.33
 -16  -2   2  634.80   53.31
 -16   2  -2  625.92   49.83
 -16   2   2  627.16   53.26
 -16  -2   2  627.97   51.20
  16  -2  -2  706.11   63.07
  16   2  -2  627.38   59.30
  16   2   2  600.31   88.17
 -17   2   2 1865.42  131.32
 -17   2  -2 1947.51  140.84
 -17  -2  -2 1866.02  136.24
 -17  -2   2 1874.64  134.47
 -17   2  -2 1853.50  131.05
 -17   2   2 1852.38  133.19
 -17  -2   2 1848.27  132.38
  17   2  -2 2012.35  165.26
  17   2   2 1826.35  146.72
 -18   2   2  299.99   30.42
 -18   2  -2  291.15   47.08
 -18  -2  -2  299.99   34.23
 -18  -2   2  299.08   31.72
 -18   2  -2  312.59   31.81
 -18   2   2  282.59   32.62
 -18  -2   2  285.11   40.01
  18   2  -2  309.28   42.36
  18   2   2  324.05   88.02
 -19   2   2 1124.44  140.48
 -19   2  -2 1138.89  141.86
 -19  -2  -2 1233.18  153.35
 -19   2  -2 1181.22  144.17
 -19   2   2 1122.73  139.33
 -19  -2   2 1139.14  140.14
  19   2  -2 1263.90  163.85
  19   2   2 1239.52  161.40
 -20   2   2   86.32   14.93
 -20   2  -2   94.37   36.46
 -20  -2  -2  102.67   47.33
 -20   2  -2  103.11   18.31
 -20   2   2   87.10   17.21
 -20  -2   2   73.45   19.62
  20   2  -2  103.33   41.86
  20   2   2   87.57   52.42
 -21   2  -2 1283.10  150.06
 -21  -2  -2 1303.18  152.62
 -21   2   2 1305.33  151.68
 -21  -2   2 1259.51  145.67
  21   2  -2 1433.17  271.43
  21   2   2 1350.19  165.99
   0  -2  -3  438.66   31.11
   0  -2   3  376.84   19.66
   0   2   3  458.94   24.29
   0   2  -3  386.32   21.58
  -1  -2  -3   50.32   15.12
   1  -2  -3   51.23   10.92
  -1  -2   3   63.73    8.91
   1  -2   3   59.24    8.91
   1   2   3   67.62   10.94
  -1   2   3   63.86    8.16
   1   2  -3   57.24    9.63
   2  -2  -3  832.93   49.22
  -2  -2   3  826.87   35.01
   2  -2   3  809.31   34.48
   2   2   3  887.81   42.01
  -2   2   3  819.07   37.94
  -3  -2  -3   98.83   12.76
   3  -2  -3   79.24   13.99
  -3  -2   3  104.89   10.76
   3  -2   3   95.41   10.00
  -3   2  -3   84.67   14.29
   3   2   3  127.01   11.17
  -3   2   3  104.29   10.90
   3   2  -3   97.30   12.34
  -4  -2  -3  211.07   17.48
   4  -2  -3  156.34   19.04
  -4  -2   3  251.54   18.80
   4  -2   3  217.15   15.08
  -4   2  -3  173.26   21.65
   4   2   3  271.81   20.37
  -4   2   3  214.72   15.06
   4   2  -3  222.73   19.36
  -5  -2  -3   49.10   13.42
  -5  -2   3   54.43    9.93
   5  -2  -3   39.84    9.85
   5  -2   3   47.79    8.16
  -5   2  -3   41.98   12.03
   5   2   3   64.18    8.85
  -5   2   3   48.84    8.05
   5   2  -3   45.20   12.28
  -6  -2  -3  452.14   27.42
  -6  -2   3  441.59   26.96
   6  -2  -3  408.63   24.93
   6  -2   3  450.54   24.96
   6   2   3  539.33   28.51
  -6   2  -3  447.17   30.48
  -6   2   3  451.23   24.84
  -6  -2   3  409.04   23.32
   6   2  -3  486.06   31.55
  -7  -2  -3   62.74   10.87
  -7  -2   3   77.72   12.83
   7  -2  -3   54.80    8.63
   7  -2   3   70.25    9.64
   7   2   3   75.55   23.25
  -7   2  -3   68.15   11.32
  -7   2   3   67.45   10.41
  -7  -2   3   60.56   10.39
   7   2  -3   53.58   12.77
  -8  -2  -3   80.56   11.65
  -8  -2   3   75.99   12.88
   8  -2  -3   82.50   10.18
   8  -2   3   93.34   11.37
   8   2   3   96.69   28.63
  -8   2  -3   91.75   20.13
  -8   2   3   87.92   12.10
  -8  -2   3   77.16   10.40
   8   2  -3   89.86   28.52
  -9   2  -3   18.68    7.51
  -9  -2  -3   17.94   13.71
  -9  -2   3   15.64    7.37
   9  -2  -3   16.21    5.79
  -9   2  -3   18.14   15.73
  -9   2   3   14.12    6.94
  -9  -2   3   23.70    9.87
   9   2  -3   16.15   13.67
 -10   2  -3  283.71   26.14
 -10  -2  -3  239.01   31.65
 -10  -2   3  222.14   21.32
  10  -2  -3  245.21   19.71
 -10   2  -3  264.77   23.39
 -10   2   3  237.97   21.60
 -10  -2   3  233.45   20.98
  10   2  -3  246.41   32.52
 -11   2  -3  287.72   25.72
 -11  -2  -3  288.44   27.35
 -11  -2   3  320.83   28.26
  11  -2  -3  285.41   22.18
 -11   2  -3  276.07   22.88
 -11   2   3  280.43   25.07
 -11  -2   3  273.98   23.74
  11   2  -3  289.53   29.79
 -12   2  -3   85.00   15.60
 -12  -2  -3   70.66   24.81
 -12  -2   3   69.99   19.56
  12  -2  -3   69.74   10.34
 -12   2  -3   62.80   10.89
 -12   2   3   64.16   13.09
 -12  -2   3   65.92   12.52
  12   2  -3   85.23   45.72
 -13   2  -3  191.97   25.07
 -13  -2  -3  190.31   25.23
 -13  -2   3  176.85   21.80
 -13   2  -3  181.67   20.89
 -13   2   3  197.33   24.38
 -13  -2   3  181.60   22.96
  13   2  -3  193.30   27.50
 -14   2   3   76.11   22.56
 -14   2  -3   82.95   16.51
 -14  -2  -3   75.98   56.76
 -14   2  -3   80.20   12.31
 -14   2   3   75.29   13.04
 -14  -2   3   77.55   14.46
  14   2  -3   70.60   23.73
 -15   2   3  187.29   21.31
 -15   2  -3  188.84   34.07
 -15  -2  -3  211.00   85.31
 -15   2  -3  198.69   20.17
 -15   2   3  188.43   22.40
 -15  -2   3  199.52   22.69
  15  -2  -3  212.87   55.55
  15   2  -3  199.84   28.30
 -16   2   3   19.60   17.50
 -16  -2  -3   22.75   27.85
 -16   2  -3   23.07    7.77
 -16   2   3   20.52   11.47
 -16  -2   3   27.10   12.64
  16  -2  -3   20.56   19.42
  16   2  -3   27.09   16.58
 -17   2  -3   42.02   41.53
 -17  -2  -3   46.21   25.70
 -17   2   3   40.68   12.10
 -17  -2   3   43.95   12.17
  17  -2  -3   32.83   30.90
  17   2  -3   36.13   30.68
 -18   2  -3   46.66   31.91
 -18  -2  -3   46.38   45.36
 -18   2   3   44.04   15.12
 -18  -2   3   43.58   13.32
  18   2  -3   49.51   41.50
 -19   2  -3   99.93   42.02
 -19  -2  -3  108.36   52.19
 -19   2   3   95.83   18.29
 -19  -2   3  106.19   19.56
  19   2  -3  100.45   43.15
 -20   2  -3    6.40    9.00
 -20  -2  -3   10.16   10.94
 -20   2   3    3.14    9.51
 -20  -2   3   11.73   13.40
  20   2  -3   14.96   16.04
 -21   2  -3   34.22   26.53
 -21   2   3   31.26   16.49
 -21  -2   3   34.68   15.92
  21   2  -3   34.06   44.58
   0  -2  -4 3627.34  140.69
   0  -2   4 3520.71  122.14
   0   2   4 3678.67  126.23
  -1  -2  -4   65.45   22.79
   1  -2  -4   67.10   13.43
  -1  -2   4   67.22    8.15
   1  -2   4   67.70    9.05
   1   2   4   71.60    8.13
  -1   2   4   63.42    9.21
  -2  -2  -4 3848.28  151.51
   2  -2  -4 3784.61  148.54
  -2  -2   4 4079.54  138.85
   2  -2   4 3910.79  135.92
   2   2   4 4236.14  142.39
  -2   2   4 3910.74  135.42
  -3  -2  -4  146.71   30.51
   3  -2  -4  144.08   18.96
  -3  -2   4  173.00   12.74
   3  -2   4  155.86   14.01
   3   2   4  159.82   10.80
  -3   2   4  145.01   14.10
   3   2  -4  134.55   15.26
  -4  -2  -4 4228.95  155.15
  -4  -2   4 4797.98  209.46
   4  -2   4 4618.39  160.42
  -4   2  -4 3921.45  175.51
  -4   2   4 4487.44  155.21
   4   2  -4 4259.59  159.09
  -5  -2  -4  378.94   27.98
   5  -2  -4  323.37   26.79
  -5  -2   4  461.57   25.44
  -5   2  -4  324.55   33.52
   5   2   4  449.44   22.84
  -5   2   4  383.50   26.13
   5   2  -4  379.75   44.98
  -6   2  -4 3102.69  144.16
  -6  -2  -4 2796.87  139.35
   6  -2  -4 2601.34  122.23
  -6  -2   4 3295.26  146.11
  -6   2  -4 2752.24  145.20
   6   2   4 3437.28  149.05
  -6   2   4 3006.33  138.86
  -6  -2   4 2828.28  131.73
   6   2  -4 2899.54  139.31
  -7   2  -4  714.06   43.51
  -7  -2  -4  769.47   47.86
  -7  -2   4  778.31   39.68
   7  -2  -4  689.16   38.93
  -7   2  -4  683.05   43.40
  -7   2   4  743.17   44.11
  -7  -2   4  666.23   40.67
   7   2  -4  697.71   47.11
  -8   2  -4 2765.82  157.04
  -8  -2  -4 2778.00  160.31
   8  -2  -4 2618.71  144.97
  -8   2  -4 2724.03  157.16
  -8   2   4 2776.43  156.70
  -8  -2   4 2587.51  147.10
   8   2  -4 2481.22  148.92
  -9   2  -4  878.74   59.48
  -9  -2  -4  764.17   60.11
   9  -2  -4  786.79   48.08
  -9   2  -4  789.47   53.44
  -9   2   4  812.73   53.46
  -9  -2   4  734.13   49.33
   9   2  -4  718.78   55.09
 -10   2  -4 1408.83  106.89
 -10  -2  -4 1299.81   99.57
  10  -2  -4 1358.24   97.95
 -10   2  -4 1443.59  108.58
 -10   2   4 1349.08  101.18
 -10  -2   4 1340.97  101.25
  10   2  -4 1323.37  120.81
 -11   2  -4 1047.28   95.40
 -11  -2  -4  964.31  124.68
 -11   2  -4  967.31   86.76
 -11   2   4 1004.66   94.47
 -11  -2   4  975.57   89.05
  11   2  -4  960.92   94.77
 -12   2  -4 1469.57  138.29
 -12  -2  -4 1386.83  127.11
 -12   2   4 1373.97  121.20
 -12  -2   4 1332.68  122.80
  12   2  -4 1302.84  120.02
 -13   2  -4 1548.96  114.75
 -13  -2  -4 1418.99  107.67
 -13   2   4 1422.29  104.99
 -13  -2   4 1295.12   97.26
  13   2  -4 1305.74  101.91
 -14   2  -4  827.13   79.97
 -14  -2  -4  768.89   69.70
 -14   2   4  790.89   63.01
 -14  -2   4  715.57   57.56
  14   2  -4  806.64   69.61
 -15   2  -4 1147.88  105.26
 -15  -2  -4 1072.77   91.18
 -15   2   4 1045.81   87.35
 -15  -2   4 1020.76   85.31
  15   2  -4 1141.71  106.10
 -16   2  -4  491.79   66.33
 -16  -2  -4  465.46   63.47
 -16   2   4  454.51   60.76
 -16  -2   4  446.49   59.72
  16  -2  -4  439.07   62.67
  16   2  -4  499.30   70.84
 -17   2  -4 1164.96  108.90
 -17  -2  -4 1151.05  112.54
 -17   2   4 1113.54  103.59
 -17  -2   4 1093.29  100.89
  17  -2  -4 1135.49  113.54
  17   2  -4 1111.94  117.32
 -18   2  -4  135.76   23.87
 -18  -2  -4  117.42   91.89
 -18   2   4  135.45   24.02
 -18  -2   4   84.94   17.49
  18  -2  -4  131.94   62.67
  18   2  -4  142.30   27.98
 -19   2  -4  999.87  120.11
 -19  -2  -4  918.38  116.16
 -19   2   4  883.79  106.21
 -19  -2   4  890.22  106.09
  19   2  -4  921.85  116.85
   0   2  -5   23.42   10.28
   0  -2  -5   26.77   11.00
   0   2   5   32.11    5.31
   1   2  -5   -0.12    2.33
  -1   2  -5    2.03    3.42
  -1  -2  -5    0.72    4.47
   1  -2  -5    0.43    7.99
  -1   2   5    1.87    5.78
   1   2   5    1.09    2.40
   2   2  -5  430.42   26.62
  -2   2  -5  425.70   31.99
  -2  -2  -5  471.04   39.17
   2  -2  -5  476.68   40.59
  -2   2   5  433.57   28.96
   2   2   5  425.50   25.90
   3   2  -5   36.84    5.06
  -3   2  -5   41.42    7.52
  -3  -2  -5   47.20   25.09
   3  -2  -5   44.59   11.34
  -3   2   5   38.33    8.32
  -4   2  -5  101.19   11.89
  -4  -2  -5  111.21   15.35
   4  -2  -5  102.90   18.20
  -4   2  -5   90.74   16.78
  -4   2   5  120.38   16.21
  -5   2  -5   34.07    8.40
  -5  -2  -5   43.11   11.27
   5  -2  -5   32.32    8.38
  -5   2  -5   26.66   25.83
  -5   2   5   37.30    9.06
   5   2  -5   35.54   23.30
  -6   2  -5  392.03   33.99
  -6  -2  -5  380.56   41.48
  -6   2  -5  280.93   28.77
  -6   2   5  403.92   35.29
  -6  -2   5  347.47   31.67
   6   2  -5  404.19   40.69
  -7   2  -5   77.84   21.29
  -7  -2  -5   83.36   21.67
  -7   2  -5   74.04   18.28
  -7   2   5   76.16   11.71
  -7  -2   5   66.34   11.97
   7   2  -5   92.20   44.08
  -8   2  -5   58.34   12.13
  -8  -2  -5   66.35   40.00
  -8   2   5   56.36   12.03
  -8  -2   5   47.97   10.70
   8   2  -5   51.33   42.21
  -9   2  -5   38.88   14.78
  -9  -2  -5   44.75   22.01
  -9   2   5   36.86   10.83
  -9  -2   5   34.27   10.03
   9   2  -5   44.10   34.49
 -10   2  -5  156.68   20.12
 -10  -2  -5  153.46   21.44
 -10   2   5  157.18   20.78
 -10  -2   5  180.24   23.76
  10   2  -5  145.24   22.21
 -11   2  -5   67.52   16.18
 -11  -2  -5   46.02   45.31
 -11   2   5   46.77   12.31
  11   2  -5   45.69   38.23
 -12   2  -5   48.03   28.91
 -12  -2  -5   44.54   33.23
 -12   2   5   50.89   13.06
 -12  -2   5   46.00   12.07
  12   2  -5   48.49   31.61
 -13   2  -5   22.77   19.95
 -13  -2  -5   23.63   16.83
 -13   2   5   22.57    9.44
 -13  -2   5   24.38   10.33
  13   2  -5   23.71   18.67
 -14   2  -5  154.26   26.71
 -14  -2  -5  155.91   27.78
 -14   2   5  153.58   26.27
 -14  -2   5  142.10   23.85
  14   2  -5  148.56   28.88
 -15   2  -5   87.03   35.31
 -15  -2  -5   83.57   21.28
 -15   2   5   86.35   20.57
 -15  -2   5   82.35   17.63
  15   2  -5   82.05   55.33
 -16   2  -5    9.17    5.81
 -16  -2  -5    3.09    8.66
 -16   2   5   10.09    9.88
 -16  -2   5   15.70   13.23
  16   2  -5   12.04    8.97
 -17   2  -5   56.81   47.38
 -17  -2  -5   55.20   49.46
 -17   2   5   49.28   14.63
 -17  -2   5   57.81   16.18
  17  -2  -5   41.92   43.76
  17   2  -5   56.55   58.89
 -18   2  -5   28.48   32.37
 -18  -2  -5   20.57   19.27
 -18   2   5   28.82   13.15
 -18  -2   5   25.51   15.08
  18  -2  -5   26.11   31.70
  18   2  -5   26.20   25.64
   0  -2  -6 2583.97  222.93
  -1   2  -6    1.31    4.04
  -1  -2  -6    1.47    6.16
   1  -2  -6    0.60    6.35
  -1   2   6    1.03   25.78
  -2   2  -6 1656.22  140.90
  -2  -2  -6 2135.65  195.58
  -2   2   6 1815.32  153.68
  -3   2  -6   54.20   16.58
  -3  -2  -6   80.30   16.08
  -3   2   6   50.75   29.76
  -4   2  -6 1999.42  140.64
  -4  -2  -6 2475.29  177.50
  -4   2   6 2224.30  153.40
  -5  -2  -6  146.24   20.54
  -5   2   6  119.09   16.63
  -6   2  -6 1319.29   94.91
  -6  -2  -6 1577.74  122.35
  -6   2   6 1463.16  104.49
   6   2  -6 1490.91  112.52
  -7   2  -6  302.82   35.31
  -7  -2  -6  349.47   35.01
  -7   2   6  293.38   27.73
   7   2  -6  337.44   37.14
  -8   2  -6 1504.54  123.01
  -8  -2  -6 1750.46  139.18
  -8   2   6 1660.14  118.70
  -8  -2   6 1597.24  115.92
   8   2  -6 1603.88  128.74
  -9   2  -6  457.60   42.83
  -9  -2  -6  557.89   50.90
  -9   2   6  478.43   44.53
  -9  -2   6  517.85   46.31
   9   2  -6  527.38   51.18
 -10   2  -6  750.37   65.90
 -10  -2  -6  883.25   79.01
 -10   2   6  782.50   68.82
 -10  -2   6  763.36   67.46
  10   2  -6  800.35   74.50
 -11   2  -6  754.81   96.02
 -11  -2  -6  879.03  112.85
 -11   2   6  781.83   99.27
 -11  -2   6  750.57   95.72
  11   2  -6  714.31   97.50
 -12   2  -6  850.86  107.62
 -12  -2  -6  892.57  113.61
 -12   2   6  862.92  109.11
 -12  -2   6  827.49  104.80
  12   2  -6  815.34  106.71
 -13   2  -6  664.19   66.75
 -13  -2  -6  738.97   75.81
 -13   2   6  676.67   68.49
 -13  -2   6  603.54   60.47
  13   2  -6  615.51   86.86
 -14   2  -6  284.60   40.95
 -14  -2  -6  283.99   41.53
 -14   2   6  293.15   44.24
 -14  -2   6  269.28   38.98
  14   2  -6  297.68   47.71
 -15   2  -6  848.03  103.38
 -15  -2  -6  857.57  104.03
 -15   2   6  865.48  104.51
 -15  -2   6  779.09   94.02
  15   2  -6  870.39  110.24
 -16   2  -6  395.47   76.31
 -16  -2  -6  393.41   76.97
 -16   2   6  363.29   69.86
 -16  -2   6  341.97   65.41
  16   2  -6  354.94   76.02
  -4  -2  -7   33.91   36.58
  -5  -2  -7    6.69   12.29
  -6  -2  -7  146.76   25.66
  -6   2   7  113.84   18.39
   6   2  -7  150.38   29.97
  -7   2  -7    6.32    9.07
  -7  -2  -7   13.80   10.43
  -7   2   7    7.43    8.48
   7   2  -7   12.50    7.28
  -8  -2  -7   58.53   52.30
  -8   2   7   51.00   10.82
   8   2  -7   66.37   58.49
  -9   2  -7   43.97   24.65
  -9  -2  -7   57.90   52.93
  -9   2   7   38.44    9.73
   9   2  -7   42.41   46.54
 -10   2  -7  128.05   21.28
 -10  -2  -7  155.68   29.97
 -10   2   7  135.79   21.50
 -10  -2   7  126.61   21.31
  10   2  -7  148.35   43.50
 -11   2  -7   24.84   30.55
 -11  -2  -7   41.47   35.44
 -11   2   7   38.37   12.37
 -11  -2   7   39.30   12.04
  11   2  -7   47.40   40.51
 -12   2  -7    5.66    8.47
 -12  -2  -7    4.57   11.58
 -12   2   7    6.71    8.08
 -12  -2   7    9.25   12.75
  12   2  -7    4.29    8.04
   6   2  -8  699.93  130.23
   7   2  -8  210.72   47.94
   8   2  -8  886.31  164.79
   0  -3   0 1952.94   82.97
   0   3   0 2238.05   99.63
   0   3   0 2064.70   79.60
  -1  -3   0    6.64   13.47
   1  -3   0    3.97   13.07
   1   3   0    2.50   11.86
  -1   3   0    6.49   14.93
   1   3   0    7.68    6.06
  -1   3   0    6.48    5.05
  -2  -3   0 1551.68   82.72
   2  -3   0 1374.81   71.61
  -2   3   0 1389.53   80.71
   2   3   0 1543.54   74.53
  -3  -3   0   19.23   13.13
   3  -3   0   22.74   13.39
  -3   3   0   23.77   19.17
   3   3   0   26.86   24.27
  -4  -3   0 1721.56   80.13
   4  -3   0 1587.92   75.09
  -4   3   0 1880.94  100.10
   4   3   0 1838.80   91.16
  -5  -3   0  215.17   26.60
   5  -3   0  220.84   27.86
  -5   3   0  215.47   25.22
   5   3   0  183.07   23.86
  -6  -3   0  198.98   22.27
   6  -3   0  199.75   22.56
  -6   3   0  216.75   23.81
   6   3   0  200.24   25.46
  -7  -3   0   37.17   27.76
   7  -3   0   40.13   11.94
  -7   3   0   41.17   35.25
   7   3   0   35.30   25.12
  -8  -3   0  669.51   42.51
   8  -3   0  604.61   37.15
  -8   3   0  668.19   42.93
   8   3   0  614.10   50.56
  -9  -3   0  340.86   29.31
   9  -3   0  362.88   30.04
  -9   3   0  338.24   30.03
   9   3   0  334.16   33.46
 -10  -3   0   55.37   31.23
  10  -3   0   57.23   11.62
 -10   3   0   51.26   29.19
  10  -3   0   53.81    5.97
  10   3   0   68.60   60.08
 -11  -3   0  162.43   24.51
  11  -3   0  146.64   19.44
 -11   3   0  146.20   18.91
  11   3   0  161.11   26.51
 -12  -3   0  762.19   73.16
  12  -3   0  700.25   58.28
 -12   3   0  684.22   58.76
  12   3   0  749.79   76.55
 -13  -3   0  291.91   31.81
  13  -3   0  253.35   27.06
 -13   3   0  241.07   25.71
  13   3   0  266.89   36.24
 -14  -3   0  120.88   20.64
  14  -3   0  114.67   18.09
 -14   3   0  105.60   17.13
  14   3   0  138.11   52.31
 -15  -3   0  343.21   36.81
  15  -3   0  313.52   31.63
 -15   3   0  280.88   30.00
  15   3   0  372.57   48.53
 -16   3   0  213.34   24.09
 -16  -3   0  256.26   41.85
 -16   3   0  230.16   26.28
  16   3   0  309.42   44.88
 -17   3   0  264.02   31.05
 -17  -3   0  325.49   36.44
 -17   3   0  272.64   30.13
  17   3   0  349.26   48.20
 -18   3   0    6.14    6.51
 -18  -3   0    5.03    8.59
 -18   3   0    5.16    7.80
  18   3   0   -1.09   14.79
 -19   3   0  164.20   24.08
 -19  -3   0  206.78   29.04
 -19   3   0  167.31   24.24
  19   3   0  287.04   86.92
 -20   3   0   52.05   33.49
 -20  -3   0   73.70   26.95
 -20   3   0   60.40   16.70
  20   3   0   91.50   63.90
 -21   3   0  241.73   48.64
 -21  -3   0  293.90  112.03
 -21   3   0  238.34   47.97
  21   3   0  457.68  185.36
   0  -3  -1 7233.06  268.83
   0  -3   1 5870.62  215.78
   0   3   1 6451.35  240.24
   0   3  -1 5990.88  212.02
  -1  -3  -1   24.78   17.94
   1  -3  -1   20.20   19.01
  -1  -3   1   29.95   15.28
   1  -3   1   12.36   16.68
  -1   3  -1   12.13   17.75
   1   3   1   22.03   15.11
  -1   3   1   21.56   17.55
   1   3  -1   24.41   18.66
  -1   3  -1    9.78    6.50
  -2  -3  -1 5013.50  181.85
  -2  -3   1 5240.56  181.43
   2  -3  -1 5785.97  219.03
   2  -3   1 5487.93  206.73
  -2   3  -1 5782.99  224.39
  -2   3   1 6026.07  226.95
  -2   3  -1 5737.72  202.97
  -3  -3  -1  612.86   43.12
  -3  -3   1  583.05   39.83
   3  -3  -1  544.70   41.54
   3  -3   1  564.00   37.76
   3   3   1  552.33   36.23
  -3   3  -1  635.33   48.63
  -3   3   1  660.54   59.98
   3   3  -1  596.35   35.91
  -3   3  -1  551.28   28.07
   3   3   1  604.17   38.72
  -4  -3   1 4952.93  178.94
   4  -3  -1 4881.13  177.26
   4  -3   1 5399.13  197.97
  -4   3  -1 5105.17  188.59
   4   3  -1 5286.85  178.09
   4   3   1 5889.82  217.16
  -4   3  -1 5071.86  157.03
  -5  -3  -1  268.15   28.97
  -5  -3   1  207.95   24.77
   5  -3  -1  252.20   28.64
   5  -3   1  276.78   26.08
  -5   3  -1  278.29   31.44
  -5   3   1  289.31   26.28
   5   3  -1  158.17  203.99
   5   3   1  257.39   27.09
  -6  -3  -1 3462.84  140.65
  -6  -3   1 3110.91  127.34
   6  -3  -1 3589.77  146.90
   6  -3   1 3634.09  142.12
  -6   3  -1 3430.28  142.90
  -6   3   1 3201.54  129.07
   6   3  -1 3249.83  129.26
   6   3   1 3364.11  147.11
  -7  -3  -1 1136.81   60.11
  -7  -3   1 1102.18   58.13
   7  -3  -1 1189.94   61.95
   7  -3   1 1107.31   54.66
  -7   3  -1 1144.60   72.83
  -7   3   1 1141.60   67.82
   7   3   1 1247.36   68.89
  -8  -3  -1 3324.47  139.44
  -8  -3   1 3508.94  150.21
   8  -3  -1 3512.80  137.09
   8  -3   1 3552.03  136.13
  -8   3  -1 3670.76  148.16
  -8   3   1 3509.07  134.66
   8   3  -1 3350.07  135.44
   8   3   1 3765.30  156.57
  -9  -3  -1  674.11   44.91
  -9  -3   1  658.30   44.44
   9  -3  -1  663.47   44.32
   9  -3   1  674.91   43.45
  -9   3  -1  703.10   51.53
  -9   3   1  656.12   45.87
   9   3  -1  656.55   48.04
   9   3   1  723.40   70.39
 -10  -3  -1 1553.26   88.76
 -10  -3   1 1678.47   92.56
  10  -3  -1 1620.36   87.01
  10  -3   1 1524.12   80.37
 -10   3  -1 1542.57   83.29
 -10   3   1 1377.04   76.75
  10   3  -1 1506.07   87.23
  10   3   1 1657.09   99.06
 -11  -3  -1 1392.57   91.52
 -11  -3   1 1431.08   92.78
  11  -3  -1 1343.74   84.66
  11  -3   1 1280.07   80.61
 -11   3  -1 1286.95   95.44
 -11   3   1 1245.13   79.16
  11   3  -1 1310.79   96.38
  11   3   1 1398.15  100.78
 -12  -3  -1 2008.89  150.75
 -12  -3   1 1955.67  150.65
  12  -3  -1 1831.84  135.73
  12  -3   1 1816.45  135.09
 -12   3  -1 1694.05  131.27
 -12   3   1 1733.03  128.57
  12   3  -1 1865.02  149.05
  12   3   1 2009.52  157.13
 -13  -3  -1 1561.23  121.88
 -13  -3   1 1544.94  121.46
  13  -3   1 1429.44  108.91
 -13   3   1 1347.42  102.45
  13   3  -1 1549.35  126.14
  13   3   1 1639.96  132.93
 -14  -3  -1  660.43   65.82
 -14  -3   1  642.57   68.99
  14  -3  -1  601.60   58.12
  14  -3   1  600.98   58.70
 -14   3  -1  548.23   54.13
 -14   3   1  555.23   54.38
  14   3  -1  667.48   75.07
  14   3   1  667.11   74.03
 -15   3  -1 1045.33   80.37
 -15  -3  -1 1269.67   98.04
 -15  -3   1 1270.22  104.19
  15  -3  -1 1184.34   89.01
 -15   3  -1 1089.63   82.55
 -15   3   1 1134.05   86.28
  15   3  -1 1325.12  108.90
  15   3   1 1354.23  112.25
 -16   3  -1  656.44   55.34
 -16  -3  -1  749.48   64.03
 -16  -3   1  727.80   61.43
 -16   3  -1  646.05   52.90
 -16   3   1  645.31   53.98
 -16  -3   1  658.50   58.74
  16   3  -1  845.56   79.56
  16   3   1  827.44   79.56
 -17   3   1  981.99   90.08
 -17   3  -1 1067.14   92.64
 -17  -3  -1 1226.59  103.17
 -17  -3   1 1232.88  104.76
 -17   3  -1 1047.98   87.94
 -17   3   1 1032.86   87.61
 -17  -3   1 1114.88   91.62
  17   3  -1 1304.92  119.71
  17   3   1 1430.08  132.93
 -18   3   1   96.57   18.71
 -18   3  -1   99.86   34.30
 -18  -3  -1  115.07   53.81
 -18  -3   1  106.69   44.37
 -18   3  -1   96.95   17.86
 -18   3   1  121.60   23.57
 -18  -3   1  122.58   22.93
  18   3  -1  125.64   39.79
  18   3   1  161.05   66.98
 -19   3   1 1026.50   96.89
 -19   3  -1 1088.29  102.14
 -19  -3  -1 1237.82  119.01
 -19  -3   1 1199.78  111.87
 -19   3  -1 1023.22   95.11
 -19   3   1 1054.46   98.27
 -19  -3   1 1158.23  106.67
  19   3  -1 1374.92  141.91
  19   3   1 1484.18  159.94
 -20   3   1  148.04   24.77
 -20   3  -1  142.49   53.00
 -20  -3  -1  186.99   31.17
 -20  -3   1  159.58   34.19
 -20   3  -1  125.21   21.26
 -20   3   1  133.55   23.00
 -20  -3   1   93.93   19.20
  20   3  -1  180.71   77.06
  20   3   1  205.68   72.50
 -21   3   1  717.41  130.62
 -21   3  -1  719.69  135.57
 -21  -3  -1  843.05  154.03
 -21  -3   1  833.97  151.85
 -21   3  -1  708.97  128.60
 -21   3   1  732.81  133.34
 -21  -3   1  784.28  141.67
  21   3  -1 1004.04  189.82
  21   3   1 1023.53  199.18
   0  -3  -2 1385.34   75.51
   0  -3   2 1489.65   70.45
   0   3   2 1455.91   72.28
   0   3  -2 1305.94   53.69
  -1  -3  -2    1.66   13.63
   1  -3  -2    3.00   13.13
  -1  -3   2    5.35   10.87
   1  -3   2    2.98    8.41
   1   3   2    1.58    4.93
  -1   3   2    3.77    8.86
   1   3  -2    2.00    6.40
  -1   3  -2    2.35    4.44
  -2  -3  -2  478.97   38.47
   2  -3  -2  447.22   36.18
  -2  -3   2  446.79   33.35
   2  -3   2  498.58   33.94
  -2   3  -2  657.38   67.80
   2   3   2  478.64   34.81
  -2   3   2  518.76   34.85
   2   3  -2  458.81   28.45
  -2   3  -2  459.27   25.22
  -3  -3  -2   12.45   18.52
  -3  -3   2    5.67   13.99
   3  -3  -2   14.67   22.03
   3  -3   2    6.20    8.58
  -3   3  -2    4.73   16.52
   3   3   2    3.51    6.86
  -3   3   2    0.96    6.86
   3   3  -2   -1.40    7.65
  -3   3  -2    5.06    5.60
  -4  -3  -2 1230.68   64.78
  -4  -3   2 1069.49   53.31
   4  -3  -2 1017.69   61.02
   4  -3   2 1298.25   62.81
   4   3   2 1268.94   65.49
  -4   3  -2 1180.25   76.38
  -4   3   2 1277.14   64.69
   4   3  -2 1120.20   55.42
  -4   3  -2 1106.18   44.94
  -5  -3  -2  162.24   30.55
  -5  -3   2  168.55   22.87
   5  -3  -2  144.19   21.37
   5  -3   2  142.61   16.45
   5   3   2  246.87   29.52
  -5   3  -2  121.27   22.22
  -5   3   2  161.50   29.26
   5   3  -2  140.95   18.15
  -5   3  -2  134.78   12.60
  -6  -3  -2  343.79   34.92
  -6  -3   2  386.76   36.17
   6  -3  -2  317.71   30.96
   6  -3   2  372.44   28.04
  -6   3  -2  326.41   32.36
  -6   3   2  351.46   26.20
   6   3  -2  340.05   26.84
  -7  -3  -2   71.87   24.64
  -7  -3   2   67.60   14.85
   7  -3  -2   79.06   17.50
   7  -3   2   79.28   14.17
  -7   3  -2   76.74   32.11
  -7   3   2   76.58   13.79
   7   3  -2   83.10   42.79
   7   3   2   67.23   16.94
  -8  -3  -2 1081.84   62.85
  -8  -3   2 1004.87   61.50
   8  -3  -2 1130.63   66.81
   8  -3   2 1115.35   62.74
  -8   3  -2 1096.94   74.10
  -8   3   2 1003.22   55.83
   8   3  -2 1115.94   66.19
   8   3   2 1113.75   77.01
  -9  -3  -2  488.28   36.41
  -9  -3   2  502.76   40.77
   9  -3  -2  529.10   39.18
   9  -3   2  494.18   35.09
  -9   3  -2  504.72   42.68
  -9   3   2  456.73   32.74
   9   3  -2  469.57   37.16
   9   3   2  466.10   40.31
 -10  -3  -2  318.28   30.30
 -10  -3   2  372.01   36.64
  10  -3  -2  322.40   29.17
  10  -3   2  304.48   28.74
 -10   3  -2  335.99   32.68
 -10   3   2  285.46   26.35
  10   3  -2  310.18   44.52
  10   3   2  324.41   54.56
 -11  -3  -2  111.34   18.21
 -11  -3   2  138.26   23.00
  11  -3  -2  110.57   15.68
  11  -3   2  103.26   16.53
 -11   3  -2  111.23   29.25
 -11   3   2  101.42   15.62
  11   3  -2  181.82   30.97
  11   3   2  132.74   51.58
 -12  -3  -2  499.90   47.32
 -12  -3   2  452.20   43.48
  12  -3  -2  411.17   37.69
  12  -3   2  430.01   41.22
 -12   3  -2  380.89   39.63
 -12   3   2  361.64   34.50
  12   3  -2  428.24   45.01
  12   3   2  480.04   50.23
 -13  -3  -2  295.16   34.73
 -13  -3   2  285.34   55.67
  13  -3  -2  253.24   28.66
  13  -3   2  276.61   32.41
 -13   3  -2  244.43   30.18
 -13   3   2  249.76   29.29
 -13  -3   2  254.36   28.54
  13   3  -2  285.58   62.96
  13   3   2  282.77   50.35
 -14   3  -2   57.30   13.33
 -14  -3  -2   63.94   54.81
 -14  -3   2   69.76   19.20
  14  -3  -2   57.39   11.02
 -14   3  -2   50.32   10.75
 -14   3   2   59.34   14.99
 -14  -3   2   62.53   12.81
  14   3  -2   58.60   45.58
  14   3   2   67.79   62.39
 -15   3  -2   81.10   23.67
 -15  -3  -2  104.49   20.66
 -15  -3   2  113.40   35.52
  15  -3  -2   79.40   13.42
 -15   3  -2   75.70   13.24
 -15   3   2   80.13   15.04
 -15  -3   2   88.63   16.11
  15   3  -2   95.90   47.89
  15   3   2   96.31   39.50
 -16   3  -2   84.78   37.89
 -16  -3  -2   97.09   59.01
 -16  -3   2   92.77   47.55
  16  -3  -2   79.89   14.06
 -16   3  -2   71.77   13.55
 -16   3   2   83.71   17.02
 -16  -3   2   95.39   17.71
  16   3  -2  112.03   45.97
  16   3   2   96.59   27.06
 -17   3   2  208.64   31.03
 -17   3  -2  214.80   47.74
 -17  -3  -2  275.22   42.01
 -17  -3   2  275.20   41.49
 -17   3  -2  204.94   30.99
 -17   3   2  216.08   32.85
 -17  -3   2  247.36   37.17
  17   3  -2  305.79  116.29
  17   3   2  288.52  110.31
 -18   3   2    6.09    6.28
 -18   3  -2    5.71    5.98
 -18  -3  -2    5.00   13.52
 -18  -3   2   11.08    8.84
 -18   3  -2    5.04    5.14
 -18   3   2    9.49    7.82
 -18  -3   2    7.38   12.57
  18   3  -2   14.51   14.43
  18   3   2    9.57   15.58
 -19   3   2  122.35   24.04
 -19   3  -2  142.66   25.88
 -19  -3  -2  174.27   30.33
 -19   3  -2  145.75   23.79
 -19   3   2  148.92   27.18
 -19  -3   2  170.76   27.36
  19   3  -2  180.98   74.49
  19   3   2  185.21   95.16
 -20   3   2   52.48   21.87
 -20   3  -2   47.40   38.73
 -20  -3  -2   64.70   40.55
 -20   3  -2   49.35   15.26
 -20   3   2   60.20   19.14
 -20  -3   2   56.58   17.85
  20   3  -2   58.12   39.21
  20   3   2   66.52   24.34
   0  -3  -3 3592.26  147.16
   0  -3   3 4472.93  165.49
   0   3   3 4532.50  164.29
   0   3  -3 4016.95  148.71
  -1  -3  -3    6.91   12.49
   1  -3  -3    5.74   12.67
  -1  -3   3    9.94    8.42
   1  -3   3    4.29    7.56
   1   3   3    9.82    7.17
  -1   3   3    9.31    7.70
  -1   3  -3   19.89   24.98
   1   3  -3   13.90   18.20
   2  -3  -3 3784.47  150.65
  -2  -3   3 4136.14  156.58
   2  -3   3 4101.80  152.57
  -2   3  -3 3516.83  145.72
   2   3   3 4302.45  164.19
  -2   3   3 3870.30  147.88
  -2   3  -3 4146.11  148.13
   2   3  -3 3824.88  142.73
  -3  -3  -3   62.30   53.10
   3  -3  -3   61.67   14.11
  -3  -3   3   71.87   13.79
   3  -3   3   68.50   11.94
  -3   3  -3   69.04   57.48
   3   3   3   90.55   34.07
  -3   3   3   72.68   18.86
  -3   3  -3   73.22   10.94
   3   3  -3   34.42   33.65
  -4  -3  -3 3806.68  155.51
   4  -3  -3 3519.46  145.14
  -4  -3   3 3910.29  150.47
   4  -3   3 3842.01  143.28
  -4   3  -3 3588.83  178.40
   4   3   3 4151.96  161.89
  -4   3   3 3603.01  137.33
   4   3  -3 3869.66  146.01
  -4   3  -3 4278.65  148.76
  -5  -3  -3  273.70   27.46
  -5  -3   3  287.91   26.29
   5  -3  -3  196.11   25.07
   5  -3   3  280.26   25.36
  -5   3  -3  222.09   28.23
   5   3   3  334.08   41.46
  -5   3   3  256.79   22.11
   5   3  -3  314.68   30.08
  -5   3  -3  286.51   19.74
  -6  -3  -3 3391.12  172.80
   6  -3  -3 3021.90  152.81
   6  -3   3 3398.98  159.79
  -6   3  -3 3063.09  161.86
  -6   3   3 3262.00  154.36
   6   3  -3 3542.13  171.99
  -6   3  -3 3568.06  157.21
  -7  -3  -3  608.58   49.44
  -7  -3   3  615.81   40.58
   7  -3  -3  607.28   44.79
   7  -3   3  628.86   45.59
   7   3   3  806.99   53.32
  -7   3  -3  546.86   59.06
  -7   3   3  582.47   37.41
   7   3  -3  651.35   46.63
  -8  -3  -3 2329.27  138.03
  -8  -3   3 2652.31  155.90
   8  -3  -3 2457.68  145.97
   8  -3   3 2343.44  136.42
   8   3   3 3169.59  237.72
  -8   3  -3 2263.93  150.72
  -8   3   3 2264.67  131.05
   8   3  -3 2512.53  151.14
  -9  -3  -3  999.15   67.63
  -9  -3   3 1147.52   78.76
   9  -3  -3  990.26   65.83
   9  -3   3 1016.78   66.72
   9   3   3 1240.53   82.84
  -9   3  -3  974.82   73.44
  -9   3   3  969.48   63.11
   9   3  -3 1079.64   75.32
 -10  -3  -3 1385.40  107.99
 -10  -3   3 1344.30  106.98
  10  -3  -3 1279.08   97.06
  10  -3   3 1399.41  106.27
 -10   3  -3 1282.39  104.94
 -10   3   3 1276.01   96.67
  10   3  -3 1517.35  129.53
 -11  -3  -3 1014.26   94.74
 -11  -3   3  921.30   87.80
  11  -3  -3  969.51   88.15
  11  -3   3 1024.19   93.81
 -11   3  -3  913.76   92.05
 -11   3   3  884.03   81.00
  11   3  -3 1016.37  114.83
 -12  -3  -3 1300.31   99.76
 -12  -3   3 1227.52   95.42
  12  -3  -3 1191.25   87.80
 -12   3  -3 1124.79   94.50
 -12   3   3 1187.94   89.00
  12   3  -3 1292.84  102.86
 -13   3  -3  952.56   75.90
 -13  -3  -3 1036.20   91.26
 -13  -3   3 1024.95   82.62
 -13   3  -3  839.34   66.99
 -13   3   3  895.12   70.00
 -13  -3   3  921.31   73.21
  13   3  -3  976.92   83.97
 -14   3  -3  397.97   39.70
 -14  -3  -3  457.15   57.04
  14  -3  -3  413.77   35.98
 -14   3  -3  367.38   33.61
 -14   3   3  395.38   36.62
 -14  -3   3  406.61   40.77
  14   3  -3  479.38   50.65
 -15   3  -3 1003.66   86.93
 -15  -3  -3 1150.63   99.86
  15  -3  -3 1006.35   82.53
 -15   3  -3  904.61   75.45
 -15   3   3  974.45   83.21
 -15  -3   3 1070.41   90.91
  15   3  -3 1087.41   97.69
 -16   3  -3  523.96   73.77
 -16  -3  -3  593.26   83.45
 -16   3  -3  493.76   63.95
 -16   3   3  517.50   69.49
 -16  -3   3  545.98   72.25
  16   3  -3  569.40   80.76
 -17   3  -3 1083.67  104.44
 -17  -3  -3 1180.85  111.94
 -17   3   3  969.63   92.39
 -17  -3   3 1108.57  103.16
  17   3  -3 1151.09  114.52
 -18   3  -3  120.05   24.67
 -18  -3  -3   95.92   20.12
 -18   3   3  113.19   21.55
 -18  -3   3  120.64   21.39
  18   3  -3  139.40   47.39
 -19   3  -3  879.24  115.73
 -19  -3  -3 1003.57  121.58
 -19   3   3  835.71  100.49
 -19  -3   3 1022.45  121.68
  19   3  -3  986.04  134.93
   0  -3  -4  997.35   65.49
   0  -3   4 1167.41   62.99
   0   3   4 1041.42   59.36
   0   3  -4 1122.53   61.46
  -1  -3  -4   51.36   16.24
   1  -3  -4   46.84   16.39
  -1  -3   4   49.30    9.92
   1  -3   4   52.48   12.16
   1   3   4   55.72   23.28
  -1   3   4   45.52   11.05
  -1   3  -4   53.47   16.66
   1   3  -4   55.91   30.24
  -2  -3  -4  593.62   54.65
   2  -3  -4  500.42   42.80
  -2  -3   4  567.82   40.82
   2  -3   4  501.89   36.95
   2   3   4  515.64   39.68
  -2   3   4  470.86   34.16
  -2   3  -4  563.31   40.46
   2   3  -4  523.65   40.41
  -3  -3  -4    3.05    9.75
   3  -3  -4    1.81    7.35
  -3  -3   4    2.53    7.13
   3  -3   4    1.37    6.86
  -3   3  -4    4.51    8.20
   3   3   4    3.13    5.37
  -3   3   4    1.95    5.78
   3   3  -4    2.56    8.03
  -4  -3  -4  542.48   50.84
   4  -3  -4  468.82   41.56
  -4  -3   4  574.81   41.60
   4  -3   4  498.42   36.83
  -4   3  -4  460.40   52.64
   4   3   4  527.24   36.27
  -4   3   4  468.09   34.23
  -4   3  -4  584.04   43.60
   4   3  -4  542.15   43.63
  -5  -3  -4  143.29   20.74
   5  -3  -4  113.33   21.21
  -5  -3   4  175.35   20.56
   5  -3   4  138.27   16.80
  -5   3  -4  124.57   41.47
   5   3   4  171.31   19.47
  -5   3   4  139.31   16.44
  -5   3  -4  182.24   18.39
   5   3  -4  153.14   20.98
  -6  -3  -4  215.37   35.47
   6  -3  -4  186.56   25.61
  -6  -3   4  297.75   31.41
   6  -3   4  221.96   24.83
  -6   3  -4  147.41   24.22
   6   3   4  240.26   22.73
  -6   3   4  209.00   22.76
   6   3  -4  237.83   29.20
  -7  -3  -4   45.00   40.55
  -7  -3   4   53.87   12.21
   7  -3  -4   35.25   10.36
   7  -3   4   41.38   10.52
  -7   3  -4   32.08   25.54
  -7   3   4   40.34   12.30
  -8  -3  -4  563.65   50.65
  -8  -3   4  706.25   60.06
   8  -3  -4  548.84   48.33
   8  -3   4  596.75   51.32
  -8   3  -4  472.47   52.84
  -8   3   4  550.92   46.86
   8   3  -4  581.64   52.82
  -9  -3  -4  256.55   31.25
   9  -3  -4  246.49   28.56
   9  -3   4  236.24   27.86
  -9   3  -4  224.50   29.33
  -9   3   4  226.51   26.69
   9   3  -4  261.96   33.02
 -10   3  -4  250.78   28.45
 -10  -3  -4  241.37   27.80
  10  -3  -4  221.97   23.15
 -10   3  -4  211.31   24.53
 -10   3   4  217.92   24.23
  10   3  -4  271.60   32.65
 -11   3  -4   61.16   39.76
 -11  -3  -4   62.40   13.46
  11  -3  -4   65.44   11.37
 -11   3  -4   58.34   20.35
 -11   3   4   58.09   12.19
  11   3  -4   72.12   32.93
 -12   3  -4  263.91   29.11
 -12  -3  -4  296.14   33.92
 -12   3  -4  231.02   29.06
 -12   3   4  270.17   29.52
  12   3  -4  276.60   34.19
 -13   3  -4  211.90   26.71
 -13  -3  -4  232.44   28.78
 -13   3   4  224.88   26.09
 -13  -3   4  198.81   23.86
  13   3  -4  201.97   63.46
 -14   3  -4   43.87   37.91
 -14  -3  -4   42.24   36.84
 -14   3   4   39.21   12.34
 -14  -3   4   46.43   17.73
  14   3  -4   42.55   35.68
 -15   3  -4   71.72   37.61
 -15  -3  -4   77.59   44.36
 -15   3   4   66.14   14.75
 -15  -3   4   75.09   20.57
  15   3  -4   78.28   59.31
 -16   3  -4   76.45   37.72
 -16  -3  -4  100.03   39.50
 -16   3   4   87.07   18.55
 -16  -3   4   92.98   18.81
  16   3  -4  108.91   31.82
 -17   3  -4  279.36   41.58
 -17  -3  -4  323.54   47.73
 -17   3   4  238.74   34.73
 -17  -3   4  276.60   40.91
  17   3  -4  291.28   47.51
 -18   3  -4   17.03   22.37
 -18  -3  -4   16.69   15.20
 -18   3   4   22.99   12.24
 -18  -3   4   11.29   11.43
  18   3  -4   22.35    9.74
   0  -3  -5 2655.36  198.65
   0  -3   5 2777.71  197.37
   0   3   5 2793.54  197.74
   0   3  -5 3324.67  284.51
  -1  -3  -5   29.05   17.04
   1  -3  -5   16.07   11.67
  -1  -3   5   27.18    8.74
   1  -3   5   21.55    8.92
   1   3   5   23.02    9.69
  -1   3   5   18.73    9.89
  -1   3  -5   22.87   15.96
   1   3  -5   22.39   17.59
  -2  -3  -5 3462.44  302.42
   2  -3  -5 2645.49  195.55
  -2  -3   5 2879.55  204.10
   2  -3   5 2693.16  192.43
  -2   3   5 2631.96  187.34
  -2   3  -5 3523.60  301.79
   2   3  -5 3232.00  278.05
  -3  -3  -5  121.61   23.29
   3  -3  -5   93.07   16.97
  -3  -3   5  105.12   14.33
   3  -3   5  100.96   16.34
  -3   3  -5  100.80   30.54
  -3   3   5   95.45   16.21
  -3   3  -5  129.39   19.53
   3   3  -5  104.82   25.65
  -4  -3  -5 1960.26  179.41
   4  -3  -5 1618.11  144.48
   4  -3   5 1730.07  149.84
  -4   3  -5 1703.74  165.11
  -4   3   5 1701.05  146.85
  -4   3  -5 2199.64  191.42
  -5  -3  -5  376.79   44.51
   5  -3  -5  258.89   33.13
   5  -3   5  325.14   35.41
  -5   3  -5  287.35   41.21
  -5   3   5  323.44   34.68
  -5   3  -5  469.08   46.65
   5   3  -5  370.29   44.11
  -6  -3  -5 1843.04  147.49
   6  -3  -5 1323.07  100.21
  -6   3   5 1582.55  113.45
   6   3  -5 1717.36  131.50
  -7   3  -5  197.21   22.10
  -7  -3  -5  203.86   27.03
  -7   3  -5  144.27   21.54
  -7   3   5  208.97   24.53
   7   3  -5  220.48   30.29
  -8   3  -5 1115.71   95.48
  -8  -3  -5 1245.16  101.01
  -8   3  -5  969.39   81.15
  -8   3   5 1186.19   88.46
   8   3  -5 1230.79   98.25
  -9   3  -5  656.44   54.93
  -9  -3  -5  726.45   63.14
  -9   3   5  671.41   54.84
   9   3  -5  678.97   78.74
 -10   3  -5 1169.38   90.85
 -10  -3  -5 1290.86  103.54
 -10   3   5 1218.86   91.71
  10   3  -5 1215.38   96.69
 -11   3  -5  435.42   43.39
 -11  -3  -5  446.87   47.70
 -11   3   5  431.04   42.32
  11   3  -5  427.19   45.79
 -12   3  -5  707.77   91.61
 -12  -3  -5  738.75   97.40
 -12   3   5  642.85   82.36
  12   3  -5  683.71   91.14
 -13   3  -5  819.32  113.63
 -13  -3  -5  936.34  120.83
 -13   3   5  867.73  109.48
  13   3  -5  877.30  114.52
 -14   3  -5  467.90   51.21
 -14  -3  -5  491.87   56.20
 -14   3   5  448.97   47.98
  14   3  -5  489.58   57.50
 -15   3  -5  604.13   76.64
 -15  -3  -5  659.25   84.48
 -15   3   5  588.29   73.46
 -15  -3   5  555.00   69.72
  15   3  -5  613.94   80.53
 -16   3  -5  219.66   46.10
 -16  -3  -5  223.87   73.54
 -16   3   5  201.15   41.42
 -16  -3   5  223.10   45.76
  16   3  -5  247.00   53.96
   0  -3  -6  462.18   47.58
   0   3  -6  585.84   54.75
  -1  -3  -6   39.95   16.73
   1  -3  -6   42.77   16.18
  -1   3  -6   45.48   50.43
   1   3  -6   39.04   36.21
  -2   3  -6  239.65   27.21
  -2  -3  -6  339.83   40.70
  -2   3   6  295.32   26.00
  -2   3  -6  415.26   52.08
   2   3  -6  378.70   40.07
  -3   3  -6    8.42    9.05
  -3  -3  -6   15.99   14.42
  -3   3  -6   13.10   12.06
  -3   3   6    9.86    8.27
  -3   3  -6   14.33   13.79
   3   3  -6    8.14    8.18
  -4   3  -6  307.15   27.43
  -4  -3  -6  421.49   45.92
  -4   3   6  369.79   32.61
  -4   3  -6  518.03   46.56
   4   3  -6  454.35   54.92
  -5   3  -6   62.28   11.30
  -5  -3  -6   88.77   40.48
  -5   3   6   67.89   18.00
   5   3  -6   74.33   39.79
  -6   3  -6  171.68   29.36
  -6  -3  -6  222.58   30.98
  -6   3   6  204.91   23.56
   6   3  -6  209.56   31.83
  -7   3  -6   11.00   13.81
  -7  -3  -6   27.53   23.66
  -7   3   6   19.73    9.11
   7   3  -6   16.89   15.22
  -8   3  -6  144.18   25.48
  -8  -3  -6  171.90   30.68
  -8   3   6  154.33   25.58
   8   3  -6  144.55   45.63
  -9   3  -6   93.38   18.12
  -9  -3  -6  108.75   72.46
  -9   3   6  105.77   19.58
   9   3  -6  117.74   38.14
 -10   3  -6   72.61   33.64
 -10  -3  -6   94.72   50.30
 -10   3   6   77.14   15.95
  10   3  -6   82.48   35.06
 -11   3  -6   24.83   24.14
 -11  -3  -6   37.72   24.46
 -11   3   6   34.53   10.84
  11   3  -6   31.82   33.61
 -12   3  -6  132.26   27.44
 -12  -3  -6  142.60   36.39
 -12   3   6  132.32   23.41
  12   3  -6  144.21   71.68
 -13   3  -6  170.28   28.71
 -13  -3  -6  193.47   33.24
 -13   3   6  172.21   28.25
  13   3  -6  177.09   32.74
 -14   3  -6   37.51   30.79
 -14  -3  -6   46.60   41.32
 -14   3   6   49.44   17.83
  14   3  -6   43.53   47.17
   0   3  -7 1141.73  144.95
  -1   3  -7   34.22   40.85
   1   3  -7   43.21   36.73
  -2   3  -7 1853.79  226.96
   2   3  -7 1906.23  174.68
   3   3  -7    5.30   10.40
  -4  -3  -7 1241.50  138.55
   4   3  -7 1250.44  119.97
  -5  -3  -7  215.76   34.27
   5   3  -7  232.61   35.52
  -6  -3  -7 1278.36  131.63
   6   3  -7 1187.45  115.32
  -7   3  -7  132.74   20.10
  -7  -3  -7  191.26   31.14
  -7   3   7  133.84   18.83
   7   3  -7  180.15   29.87
  -8   3  -7  594.15   74.12
  -8  -3  -7  874.44  110.23
  -8   3   7  707.24   84.34
   8   3  -7  822.46  106.41
  -9   3  -7  295.81   40.22
  -9  -3  -7  421.64   59.52
  -9   3   7  349.19   46.59
   9   3  -7  407.59   62.13
 -10   3  -7  502.61   92.70
 -10  -3  -7  661.10  123.58
 -10   3   7  568.17  104.19
  10   3  -7  679.53  128.73
   0   3  -8  237.33   53.30
  -1   3  -8   11.65   20.11
   1   3  -8    9.54   15.28
   2   3  -8   92.06   49.48
   3   3  -8    4.07   10.57
   0  -4   0 4663.90  189.51
   0   4   0 3964.95  179.65
   0   4   0 3688.82  144.45
  -1  -4   0   86.61   18.17
   1  -4   0   96.41   20.41
   1   4   0  101.10   73.73
  -1   4   0  126.50   53.37
   1   4   0   78.46   29.74
  -1   4   0   78.54   11.93
  -2  -4   0 5041.62  245.42
   2  -4   0 5678.61  276.96
   2   4   0 4630.50  200.56
  -2   4   0 4647.90  201.03
   2   4   0 4451.91  172.92
  -3  -4   0  479.32   52.27
   3  -4   0  339.50   36.93
  -3   4   0  362.91   42.70
   3   4   0  369.93   62.75
  -4  -4   0 2727.07  151.06
   4  -4   0 2614.48  144.55
  -4   4   0 2734.90  162.50
   4   4   0 2886.30  155.88
  -5  -4   0  271.42   33.19
   5  -4   0  304.05   35.02
  -5   4   0  267.31   32.86
   5   4   0  343.12   37.35
  -6  -4   0 3033.60  162.01
   6  -4   0 2942.86  155.91
  -6   4   0 3060.20  160.68
   6   4   0 3821.42  197.26
  -7  -4   0  789.03   67.04
   7  -4   0  704.65   59.17
  -7   4   0  735.00   63.35
   7   4   0  929.54  140.98
  -8  -4   0 1929.56  126.18
   8  -4   0 1851.02  121.31
  -8   4   0 1897.31  127.86
   8   4   0 2277.15  153.04
  -9  -4   0 1232.73  106.91
   9  -4   0  848.04   73.48
  -9   4   0  996.20   86.64
   9   4   0 1262.00  126.37
 -10  -4   0 2056.43  161.00
  10  -4   0 2055.15  159.54
 -10   4   0 1852.75  144.04
  10   4   0 2497.78  197.24
 -11  -4   0  852.73   86.20
  11  -4   0  850.61   84.31
 -11   4   0  733.62   73.60
  11   4   0 1008.52  107.41
 -12  -4   0  956.76   82.94
  12  -4   0  919.41   76.52
 -12   4   0  835.44   73.97
  12   4   0 1234.24  110.25
 -13  -4   0  696.59   65.84
  13  -4   0  559.40   52.62
 -13   4   0  505.76   49.57
  13   4   0  802.34   81.14
 -14  -4   0  884.28   78.57
  14  -4   0  686.02   60.35
 -14   4   0  645.82   57.49
  14   4   0  997.68   95.34
 -15  -4   0 1178.55  106.24
  15  -4   0  968.62   86.44
 -15   4   0  810.64   72.88
  15   4   0 1423.02  133.28
 -16  -4   0  261.80   87.65
  16  -4   0  226.65   37.26
 -16   4   0  188.00   31.76
  16   4   0  321.08   58.78
 -17  -4   0  891.57   90.60
  17  -4   0  748.66   74.96
 -17   4   0  662.09   66.98
  17   4   0 1133.86  122.04
 -18   4   0  122.53   24.04
 -18  -4   0  199.36   70.98
 -18   4   0  150.93   26.74
  18   4   0  271.78   76.79
 -19   4   0  763.59  140.53
 -19  -4   0 1162.47  210.83
 -19   4   0  825.96  149.61
  19   4   0 1499.54  275.91
   0  -4  -1 1378.82   77.06
   0  -4   1 1378.04   76.59
   0   4  -1 1490.45   89.01
   0   4   1 1263.02   74.32
   0   4  -1 1312.52   68.34
  -1  -4  -1   43.91   19.05
   1  -4  -1   31.44   15.92
  -1  -4   1   33.32   14.52
   1  -4   1   28.19   12.13
   1   4  -1   31.00   36.50
  -1   4  -1   35.29   32.12
   1   4   1   49.36   38.83
  -1   4   1   34.47   26.84
   1   4  -1   32.78   28.63
  -1   4  -1   29.72   26.77
  -2  -4  -1 2347.16  140.58
  -2  -4   1 2156.97  118.50
   2  -4  -1 2215.90  123.55
   2  -4   1 2035.16  118.13
   2   4   1 2033.57  114.89
  -2   4  -1 1996.55  131.73
  -2   4   1 1986.52  118.64
   2   4  -1 1896.92  107.52
  -2   4  -1 1716.34   90.63
  -3  -4  -1   46.05   25.77
  -3  -4   1   27.91   11.93
   3  -4  -1   31.22   17.80
   3  -4   1   27.30   15.96
   3   4   1   26.47   22.19
  -3   4  -1   33.89   22.93
  -3   4   1   26.26   24.16
   3   4  -1   29.24   23.45
  -3   4  -1   24.04   18.31
   3   4   1   29.91   27.63
  -4  -4  -1  517.88   47.70
  -4  -4   1  531.86   43.66
   4  -4  -1  528.93   47.70
   4  -4   1  579.68   51.20
   4   4   1  551.73   73.36
  -4   4  -1  438.60   54.11
  -4   4   1  533.83   47.11
   4   4  -1  534.53   50.55
   4   4   1  524.88   42.69
  -5  -4  -1  150.99   31.27
  -5  -4   1  133.62   25.13
   5  -4  -1  126.64   25.19
   5  -4   1  130.88   22.67
   5   4   1  136.32   24.45
  -5   4  -1  124.70   28.03
  -5   4   1  165.10   55.44
   5   4  -1  123.71   28.94
   5   4   1  144.70   23.34
  -6  -4  -1 1498.36  104.99
  -6  -4   1 1354.86   97.53
   6  -4  -1 1174.96   84.92
   6  -4   1 1516.61  103.68
  -6   4  -1 1372.87  130.47
  -6   4   1 1563.88  106.80
   6   4  -1 1443.93   97.11
   6   4   1 1531.57  104.76
  -7  -4  -1  262.24   37.55
  -7  -4   1  184.78   31.41
   7  -4  -1  194.44   29.83
   7  -4   1  226.44   30.45
  -7   4  -1  194.49   45.22
  -7   4   1  194.29   56.39
   7   4  -1  202.67   31.81
   7   4   1  220.92   53.95
  -8  -4  -1  640.69   57.28
  -8  -4   1  548.06   50.09
   8  -4  -1  562.12   51.58
   8  -4   1  560.91   47.98
  -8   4  -1  532.21   49.46
  -8   4   1  570.75   49.06
   8   4  -1  594.21   53.21
   8   4   1  656.49   61.35
  -9  -4  -1  326.84   39.12
  -9  -4   1  335.03   43.46
   9  -4  -1  301.60   39.91
   9  -4   1  315.90   37.92
  -9   4  -1  280.12   44.50
  -9   4   1  298.14   47.56
   9   4  -1  289.29   60.87
   9   4   1  330.48   43.75
 -10  -4  -1 1416.61  127.72
 -10  -4   1 1451.56  119.22
  10  -4  -1 1177.45   96.89
  10  -4   1 1363.80  110.59
 -10   4  -1 1304.04  109.31
 -10   4   1 1278.35  102.75
  10   4  -1 1376.64  128.09
  10   4   1 1569.97  130.15
 -11  -4  -1  391.03   47.41
 -11  -4   1  371.39   46.06
  11  -4  -1  380.04   46.41
  11  -4   1  339.92   41.24
 -11   4  -1  316.72   40.75
 -11   4   1  303.00   40.34
  11   4  -1  355.25   51.46
  11   4   1  375.91   98.40
 -12  -4  -1  140.29   23.58
 -12  -4   1  164.01   29.28
  12  -4  -1  128.26   24.84
  12  -4   1  126.37   21.30
 -12   4  -1  111.11   21.52
 -12   4   1  117.30   19.58
  12   4  -1  127.24   96.12
  12   4   1  150.26   59.60
 -13  -4  -1  313.88   38.08
 -13  -4   1  357.43   43.98
  13  -4  -1  281.76   32.52
  13  -4   1  293.68   34.20
 -13   4  -1  254.34   32.75
 -13   4   1  253.68   30.05
  13   4  -1  319.45   42.75
  13   4   1  346.52   43.82
 -14  -4  -1  399.87   44.21
 -14  -4   1  434.15   47.91
  14  -4  -1  362.33   37.82
  14  -4   1  364.03   38.38
 -14   4  -1  288.70   31.09
 -14   4   1  303.41   32.11
  14   4  -1  382.50   68.82
  14   4   1  432.88   50.83
 -15  -4  -1  319.86   63.27
 -15  -4   1  351.16  106.08
  15  -4  -1  256.28   32.21
  15  -4   1  291.48   37.46
 -15   4  -1  226.50   28.05
 -15   4   1  235.49   28.66
  15   4  -1  333.30   47.49
  15   4   1  328.98   44.50
 -16  -4  -1   14.10   14.53
 -16  -4   1    9.14   11.47
  16  -4  -1   16.00    8.26
  16  -4   1   20.13   13.82
 -16   4  -1    8.77    8.47
 -16   4   1   15.38   12.23
  16   4  -1   13.13   16.97
  16   4   1   10.41   16.21
 -17  -4  -1  348.03   45.01
 -17  -4   1  366.64  111.80
  17  -4  -1  291.32   37.28
 -17   4  -1  251.77   31.50
 -17   4   1  260.09   32.93
  17   4  -1  366.58   54.05
  17   4   1  348.18   73.67
 -18   4  -1  133.60   23.07
 -18  -4  -1  223.01   54.00
 -18  -4   1  235.35  122.60
 -18   4  -1  144.65   24.95
 -18   4   1  168.15   27.77
  18   4  -1  243.03   80.62
  18   4   1  252.89   67.71
 -19   4   1  221.42   44.59
 -19   4  -1  218.05   44.04
 -19  -4  -1  324.03   65.98
 -19  -4   1  376.78  138.29
 -19   4  -1  235.34   47.79
 -19   4   1  233.69   47.55
  19   4  -1  387.85   84.63
  19   4   1  358.87  103.51
   0  -4  -2 3220.77  169.14
   0  -4   2 3029.53  160.22
   0   4  -2 2870.48  152.03
   0   4   2 3085.23  166.40
   0   4  -2 2954.54  145.61
  -1  -4  -2   19.31   18.90
   1  -4  -2   14.31   13.37
  -1  -4   2   16.84   19.19
   1  -4   2    7.86    9.70
  -1   4  -2   19.61   24.02
   1   4   2   14.06   11.34
  -1   4   2   16.25   13.40
   1   4  -2   12.94    7.36
  -1   4  -2   11.67   10.99
  -2  -4  -2 5566.31  331.75
   2  -4  -2 5215.77  301.58
  -2  -4   2 5276.33  303.60
   2  -4   2 5023.08  292.33
  -2   4  -2 4353.45  228.94
   2   4   2 4878.56  290.04
  -2   4   2 4760.98  242.20
   2   4  -2 4304.24  204.10
  -2   4  -2 4188.52  194.49
  -3  -4  -2  138.69   26.71
  -3  -4   2  170.79   28.86
   3  -4  -2  160.19   28.25
   3  -4   2  130.60   24.12
  -3   4  -2  151.97   83.11
   3   4   2  133.87   22.08
  -3   4   2  141.74   38.06
   3   4  -2  129.88   31.79
  -3   4  -2  127.38   16.76
  -4  -4  -2 2546.64  164.81
  -4  -4   2 2617.27  159.99
   4  -4  -2 2662.27  169.99
   4  -4   2 2423.12  151.41
   4   4   2 2476.51  158.69
  -4   4  -2 2147.17  148.99
  -4   4   2 2494.79  159.34
   4   4  -2 2358.60  152.51
  -4   4  -2 2034.29  124.54
  -5  -4  -2  153.28   26.51
  -5  -4   2  135.50   19.52
   5  -4  -2  136.46   24.89
   5  -4   2  161.58   24.53
   5   4   2  178.14   47.20
  -5   4  -2  133.50   43.46
  -5   4   2  142.81   36.93
   5   4  -2  107.80  109.18
  -5   4  -2  140.52   19.85
  -6  -4  -2 3159.14  242.23
   6  -4  -2 2187.37  145.12
   6  -4   2 2444.13  148.86
   6   4   2 2762.01  170.79
  -6   4  -2 2068.99  149.87
  -6   4   2 2539.59  165.58
   6   4  -2 2566.66  158.00
  -7  -4  -2  635.26   63.37
  -7  -4   2  553.23   53.24
   7  -4  -2  543.00   58.51
   7  -4   2  600.46   56.66
   7   4   2  627.94   63.70
  -7   4  -2  518.05   57.38
  -7   4   2  594.67   55.21
   7   4  -2  589.49   56.63
  -8  -4  -2 1755.22  141.04
  -8  -4   2 1909.14  152.35
   8  -4  -2 1491.51  120.66
   8  -4   2 1884.07  146.12
  -8   4  -2 1526.80  127.91
  -8   4   2 1718.14  135.85
   8   4  -2 1820.54  141.61
   8   4   2 1687.58  133.52
  -9  -4  -2  718.28   76.12
  -9  -4   2  620.29   67.14
   9  -4   2  672.65   68.60
  -9   4  -2  554.37   61.19
  -9   4   2  613.06   58.11
   9   4  -2  703.22   75.50
   9   4   2  701.97   76.29
 -10  -4  -2 1597.91  158.86
 -10  -4   2 1317.88  124.22
  10  -4  -2 1519.10  140.87
  10  -4   2 1449.97  132.81
 -10   4  -2 1316.04  130.02
 -10   4   2 1255.37  115.45
  10   4  -2 1552.06  145.85
  10   4   2 1620.99  159.20
 -11  -4  -2 1058.44   96.99
 -11  -4   2  932.00   78.99
  11  -4  -2  950.91   78.58
  11  -4   2  992.19   81.60
 -11   4  -2  943.19   83.40
 -11   4   2  896.90   73.33
  11   4  -2 1069.40   92.70
  11   4   2 1119.45  104.09
 -12  -4  -2  920.42   79.19
 -12  -4   2  908.92   80.28
  12  -4  -2  838.68   70.70
  12  -4   2  824.66   70.48
 -12   4  -2  724.85   66.31
 -12   4   2  742.48   62.64
  12   4  -2  892.04   96.44
  12   4   2  885.29   80.98
 -13  -4  -2  805.84   72.15
 -13  -4   2  803.92   73.82
  13  -4  -2  644.33   57.09
  13  -4   2  703.70   63.64
 -13   4  -2  645.15   58.05
 -13   4   2  609.48   54.11
  13   4  -2  786.78   74.70
  13   4   2  748.51   72.20
 -14  -4  -2  614.81   62.76
 -14  -4   2  611.51   62.74
  14  -4  -2  537.79   52.93
  14  -4   2  539.58   54.55
 -14   4  -2  431.20   43.82
 -14   4   2  479.56   48.19
  14   4  -2  601.36   66.87
  14   4   2  575.07   61.89
 -15  -4  -2 1093.01  139.68
 -15  -4   2 1093.93  140.89
  15  -4  -2  856.29  108.40
  15  -4   2  971.34  123.87
 -15   4  -2  780.32   99.76
 -15   4   2  825.79  105.05
  15   4  -2 1097.33  144.41
  15   4   2 1018.08  133.31
 -16  -4  -2  194.58   37.46
 -16  -4   2  274.03   45.01
  16  -4  -2  170.73   24.82
 -16   4  -2  140.83   21.80
 -16   4   2  160.93   23.98
  16   4  -2  245.15  105.24
  16   4   2  208.83   36.16
 -17   4  -2  476.89   61.18
 -17  -4  -2  759.14   79.67
 -17  -4   2  922.33  118.25
  17  -4  -2  583.20   60.03
 -17   4  -2  487.73   51.59
 -17   4   2  548.19   69.65
  17   4  -2  819.10   93.95
  17   4   2  707.29   86.24
 -18   4  -2  145.21   25.48
 -18  -4  -2  218.10   37.89
  18  -4  -2  155.39   24.96
 -18   4  -2  144.10   24.62
 -18   4   2  166.22   28.11
  18   4  -2  238.83  130.91
  18   4   2  205.62   39.04
   0  -4  -3  943.89   78.75
   0  -4   3  876.99   67.16
   0   4   3  810.30   61.00
   0   4  -3  790.34   56.22
  -1  -4  -3    6.91   17.46
   1  -4  -3    4.59   14.38
  -1  -4   3    0.86   10.96
   1  -4   3    7.69   17.19
  -1   4  -3    0.14    9.07
   1   4   3    3.55   11.57
  -1   4   3   -1.65   10.27
   1   4  -3    1.03    4.83
  -1   4  -3    0.73    4.28
  -2  -4  -3 1520.97  109.09
   2  -4  -3 1441.58   96.36
  -2  -4   3 1673.44  112.26
   2  -4   3 1620.92  106.60
  -2   4  -3 1607.33  117.65
   2   4   3 1601.37  108.73
  -2   4   3 1407.49   92.70
   2   4  -3 1460.90   98.12
  -2   4  -3 1472.90   94.89
  -3  -4  -3   37.02   24.45
   3  -4  -3   33.23   16.76
  -3  -4   3   21.53   11.85
   3  -4   3   19.90   13.11
  -3   4  -3   24.40   20.32
   3   4   3   25.82   17.66
  -3   4   3   26.63   18.85
   3   4  -3   14.22   24.87
  -3   4  -3   16.66   17.28
  -4  -4  -3 1086.58   97.53
   4  -4  -3 1071.55   91.71
  -4  -4   3 1139.58   94.60
   4  -4   3  891.64   74.54
  -4   4  -3 1024.78   92.11
   4   4   3 1042.17   96.09
  -4   4   3 1038.56   87.77
   4   4  -3 1009.08   86.74
  -5  -4  -3  116.85   30.05
  -5  -4   3   97.21   19.15
   5  -4  -3   80.30   20.73
   5  -4   3   87.73   20.94
  -5   4  -3   66.03   20.11
   5   4   3  105.27   42.43
  -5   4   3   71.52   21.42
   5   4  -3   82.22   68.97
  -6  -4  -3 1171.27  101.03
  -6  -4   3 1474.87  118.83
   6  -4  -3  933.47   83.95
   6  -4   3 1174.36   95.87
   6   4   3 1316.58  105.69
  -6   4  -3  995.39   94.84
  -6   4   3  967.21   78.34
   6   4  -3 1111.41   91.14
  -7  -4  -3  263.61   40.63
  -7  -4   3  324.21   40.10
   7  -4  -3  181.47   28.94
   7  -4   3  272.11   34.36
   7   4   3  375.53   49.76
  -7   4  -3  189.72   51.11
  -7   4   3  224.45   37.79
   7   4  -3  246.79   41.24
  -8  -4  -3  189.96   33.68
  -8  -4   3  208.14   28.60
   8  -4  -3  158.94   27.46
   8  -4   3  196.99   28.02
   8   4   3  293.82   42.18
  -8   4  -3  159.49   27.84
  -8   4   3  172.52   26.55
   8   4  -3  209.07   31.50
  -9  -4  -3  106.49   83.69
  -9  -4   3  118.96   21.98
   9  -4  -3   84.48   17.55
   9  -4   3   95.10   17.52
   9   4   3  119.67   38.41
  -9   4  -3   81.53   34.72
  -9   4   3   93.88   16.11
   9   4  -3  103.49   21.23
 -10  -4  -3  352.14   40.46
 -10  -4   3  360.56   38.74
  10  -4  -3  307.45   34.81
  10  -4   3  341.87   35.91
  10   4   3  470.16   48.22
 -10   4  -3  281.02   38.22
 -10   4   3  290.89   30.86
  10   4  -3  360.11   40.59
 -11  -4  -3  283.87   37.25
 -11  -4   3  317.31   37.75
  11  -4  -3  222.75   28.91
  11  -4   3  282.81   33.24
 -11   4  -3  209.90   46.06
 -11   4   3  233.04   27.51
  11   4  -3  292.58   37.54
 -12  -4  -3  198.56   58.98
 -12  -4   3  260.35   38.64
  12  -4  -3  201.61   27.64
  12  -4   3  192.76   25.18
 -12   4  -3  144.67   24.33
 -12   4   3  158.15   21.44
  12   4  -3  228.40   35.89
 -13  -4  -3  140.46   41.64
  13  -4  -3  141.32   21.72
  13  -4   3  152.14   23.87
 -13   4  -3  121.97   20.31
 -13   4   3  130.05   19.98
  13   4  -3  158.48   28.89
 -14  -4  -3  458.63   67.13
  14  -4  -3  379.46   52.63
  14  -4   3  382.68   54.68
 -14   4  -3  306.35   51.02
 -14   4   3  369.85   52.03
  14   4  -3  450.52   67.08
 -15   4  -3  379.02   43.15
 -15  -4  -3  521.41   60.48
 -15   4  -3  367.38   44.67
 -15   4   3  415.16   47.52
  15   4  -3  564.41   67.57
 -16   4  -3   85.22   52.08
 -16  -4  -3  105.45   23.40
  16  -4  -3   86.29   18.65
 -16   4  -3   71.41   15.30
 -16   4   3   85.88   20.33
  16   4  -3  127.31   65.20
 -17   4  -3  215.80   33.72
 -17  -4  -3  298.36   47.07
 -17   4  -3  191.37   29.28
 -17   4   3  218.63   33.58
  17   4  -3  301.29   53.09
   0  -4  -4 2197.53  203.82
   0  -4   4 2165.85  191.67
   0   4   4 1735.46  153.41
   0   4  -4 2120.65  185.64
   1  -4  -4    7.57   18.11
  -1  -4   4    5.97   12.90
   1  -4   4    7.15   12.38
   1   4   4    5.29    7.23
  -1   4   4    1.69    4.43
   1   4  -4   -1.51   10.76
  -1   4  -4    0.64    5.29
   2  -4  -4 2759.81  240.74
  -2  -4   4 3233.72  229.16
   2  -4   4 3130.77  222.01
   2   4   4 2541.55  219.77
  -2   4   4 2418.77  217.75
   2   4  -4 3175.86  226.56
  -2   4  -4 2958.62  207.19
  -3  -4  -4  142.01   34.20
   3  -4  -4  134.92   23.49
  -3  -4   4  146.76   23.73
   3  -4   4  139.30   24.46
  -3   4  -4  152.98   31.16
   3   4   4  138.39   46.89
  -3   4   4  103.52   30.01
   3   4  -4  115.49   23.82
  -3   4  -4  146.89   20.81
  -4  -4  -4 1768.20  164.32
   4  -4  -4 1842.85  166.10
  -4  -4   4 2314.93  205.89
   4  -4   4 1839.56  163.62
  -4   4  -4 2093.63  209.88
   4   4   4 1759.63  162.31
  -4   4   4 1437.37  132.73
   4   4  -4 1896.07  173.67
  -5  -4  -4  147.55   35.71
   5  -4  -4  106.88   20.48
  -5  -4   4  116.54   19.85
   5  -4   4  112.55   20.84
  -5   4  -4  105.19   21.90
   5   4   4  121.72   21.35
  -5   4   4   98.87   18.67
   5   4  -4  121.11   97.27
  -6  -4  -4 1805.14  144.11
   6  -4  -4 1378.00  108.89
  -6  -4   4 2177.86  162.41
   6  -4   4 1641.50  122.85
  -6   4  -4 1336.08  129.93
  -6   4   4 1485.33  109.77
   6   4  -4 1943.55  148.28
  -7  -4  -4  531.06   55.14
  -7  -4   4  643.85   58.06
   7  -4  -4  366.32   41.56
   7  -4   4  481.80   45.36
  -7   4  -4  382.38   47.29
  -7   4   4  427.90   39.33
   7   4  -4  530.51   53.81
  -8  -4  -4 1278.89  106.18
   8  -4  -4 1008.86   85.28
   8  -4   4 1062.38   83.84
  -8   4  -4  810.32   78.37
  -8   4   4  984.95   76.91
   8   4  -4 1171.72   95.32
  -9  -4  -4  392.09   46.20
   9  -4  -4  287.03   33.90
   9  -4   4  340.39   35.91
  -9   4  -4  251.47   65.98
  -9   4   4  293.23   30.33
   9   4  -4  356.98   42.63
 -10  -4  -4 1029.65   94.34
  10  -4  -4  878.65   78.54
  10  -4   4  956.03   83.56
 -10   4  -4  757.36   73.47
 -10   4   4  847.70   73.87
  10   4  -4 1046.16   96.34
 -11  -4  -4  604.62   62.33
  11  -4  -4  489.81   47.82
  11  -4   4  568.98   56.17
 -11   4  -4  407.63   52.60
 -11   4   4  501.78   48.10
  11   4  -4  638.73   73.26
 -12  -4  -4  611.52   84.68
  12  -4   4  542.42   72.98
 -12   4  -4  417.64   58.35
 -12   4   4  481.43   64.62
  12   4  -4  613.89  105.10
 -13   4  -4  476.11   51.67
 -13  -4  -4  625.66   68.21
 -13   4  -4  439.19   51.07
 -13   4   4  515.50   54.86
  13   4  -4  615.33   80.02
 -14   4  -4  428.24   51.68
 -14  -4  -4  593.11   67.21
 -14   4   4  454.32   49.07
  14   4  -4  574.45   68.24
 -15   4  -4  513.53   71.90
 -15  -4  -4  689.20   89.75
 -15   4   4  556.15   70.63
  15   4  -4  696.49   92.12
 -16   4  -4  110.74   29.22
 -16  -4  -4  163.50   49.97
 -16   4   4  134.08   30.33
  16   4  -4  146.84   62.40
   0  -4  -5  716.32   72.38
   0  -4   5  580.99   50.07
   0   4   5  469.35   42.04
   0   4  -5  660.91   61.02
  -1  -4  -5    8.81   15.86
   1  -4  -5    7.11    9.06
  -1  -4   5   11.21    9.67
   1  -4   5   10.80    8.48
   1   4  -5   10.83   14.53
  -1   4  -5    8.65   10.10
  -2  -4  -5  501.74   54.47
   2  -4  -5  449.68   44.67
  -2  -4   5  548.95   48.77
   2  -4   5  460.66   42.43
  -2   4  -5  575.85   62.00
  -2   4   5  367.38   32.72
   2   4  -5  521.48   55.27
  -2   4  -5  564.54   49.18
  -3  -4  -5  156.47   29.48
   3  -4  -5  151.89   26.00
  -3  -4   5  140.70   19.72
   3  -4   5  128.80   18.75
  -3   4  -5  157.05   28.49
  -3   4   5  112.21   15.44
   3   4  -5  149.68   23.86
  -4  -4  -5  680.48   67.21
   4  -4  -5  657.01   59.75
   4  -4   5  559.79   48.52
  -4   4  -5  718.11   76.11
  -4   4   5  515.53   43.76
   4   4  -5  748.82   70.28
  -5  -4  -5   25.19   24.50
   5  -4  -5    8.78   13.07
   5  -4   5    8.24    7.82
  -5   4  -5    1.64    8.06
  -5   4   5    6.21    6.63
   5   4  -5    7.83    9.09
  -6  -4  -5  730.86   72.25
   6  -4  -5  481.80   47.52
   6  -4   5  611.91   54.17
  -6   4  -5  491.50   55.30
  -6   4   5  496.43   43.65
   6   4  -5  632.39   62.05
  -7  -4  -5  161.73   29.36
   7  -4  -5  100.63   20.37
   7  -4   5  130.49   21.97
  -7   4  -5   85.39   18.75
  -7   4   5  112.80   17.24
   7   4  -5  161.77   27.36
  -8  -4  -5  475.78   54.26
   8  -4   5  430.88   44.63
  -8   4  -5  282.77   36.59
  -8   4   5  373.03   38.01
   8   4  -5  437.72   48.02
  -9  -4  -5   66.87   75.65
   9  -4   5   60.54   17.00
  -9   4  -5   42.23   32.26
  -9   4   5   48.45   15.42
   9   4  -5   51.86   44.95
 -10   4  -5  284.92   41.39
 -10  -4  -5  400.28   61.20
 -10   4   5  294.31   43.60
  10   4  -5  376.36   57.45
 -11   4  -5  265.89   32.70
 -11  -4  -5  342.59   76.69
 -11   4   5  291.03   35.02
  11   4  -5  357.63   47.01
 -12   4  -5  111.92   19.06
 -12  -4  -5  165.03   52.07
 -12   4   5  135.68   21.58
  12   4  -5  156.61   68.91
 -13   4  -5  109.84   31.05
 -13  -4  -5  151.88   43.74
 -13   4   5  136.27   25.42
  13   4  -5  150.93   73.47
 -14   4  -5  109.48   26.07
 -14  -4  -5  156.37   39.69
 -14   4   5  106.77   25.27
  14   4  -5  116.65   90.49
   0  -4  -6 1547.89  196.41
   0   4  -6 1560.92  199.39
  -1  -4  -6    2.12   14.12
   1  -4  -6   10.00   14.31
   1   4  -6   -3.50   16.20
  -2  -4  -6 1393.71  179.29
  -2   4  -6 1758.48  232.18
   2   4  -6 1498.07  192.85
  -3  -4  -6   97.10   27.02
   3  -4   6   86.08   18.48
  -3   4  -6  114.90   26.89
  -3   4   6   70.29   14.89
   3   4  -6   95.68   93.97
  -4  -4  -6 1295.48  169.83
   4  -4   6  953.04  118.59
  -4   4  -6 1343.61  181.69
  -4   4   6  834.59  103.41
   4   4  -6 1174.84  149.16
  -5  -4  -6  117.66   38.27
  -5   4   6   71.30   16.42
   5   4  -6   92.15   80.62
  -6   4  -6  866.06   80.76
  -6  -4  -6 1649.67  201.23
  -6   4   6 1016.91   93.21
   6   4  -6 1347.03  128.18
  -7   4  -6  215.09   27.55
  -7  -4  -6  310.26   45.90
  -7   4   6  215.37   29.51
   7   4  -6  283.86   39.71
  -8   4  -6  446.27   51.44
  -8  -4  -6  639.19   73.25
  -8   4   6  523.30   53.40
   8   4  -6  649.45   70.48
  -9   4  -6  178.54   30.23
  -9  -4  -6  286.18   49.60
  -9   4   6  202.61   31.63
   9   4  -6  256.63   42.64
 -10   4  -6  529.37   68.95
 -10  -4  -6  869.21  112.66
 -10   4   6  579.89   71.76
  10   4  -6  759.70   97.63
 -11   4  -6  310.02   60.08
 -11  -4  -6  447.82   89.78
 -11   4   6  335.21   64.26
  11   4  -6  394.71   78.72
   1   4  -7    3.61   11.27
   2   4  -7  448.74   63.30
   3   4  -7   85.99   60.31
  -4  -4  -7  387.11   82.43
   4   4  -7  337.41   74.46
  -5  -4  -7    5.79   16.25
   5   4  -7    3.67    6.10
  -6  -4  -7  272.73   64.09
   6   4  -7  197.46   66.04
   0  -5   0 1962.84  158.45
   0   5   0 1942.59  161.66
  -1  -5   0    8.30   20.12
   1  -5   0    4.70   18.38
   1   5   0    6.47   14.40
  -1   5   0   -0.06   14.31
   1   5   0    5.51    7.22
  -2  -5   0  947.79   85.35
   2  -5   0 1068.18   96.57
   2   5   0  923.93   84.82
  -2   5   0  796.03   74.12
   2   5   0  900.18   87.62
  -3  -5   0   39.50   17.68
   3  -5   0   34.31   21.30
   3   5   0   29.40   25.69
  -3   5   0   21.74    8.84
   3   5   0   26.58   24.25
  -4  -5   0 2666.08  206.21
   4  -5   0 2871.42  224.03
   4   5   0 2618.86  203.64
  -4   5   0 2684.47  215.99
  -5  -5   0  149.99   34.48
   5  -5   0  120.93   28.83
   5   5   0  133.52   34.29
  -5   5   0  114.93   56.05
   5   5   0  128.24   32.23
  -6  -5   0 1749.81  171.55
   6  -5   0 1341.47  133.84
  -6   5   0 1287.10  166.84
   6   5   0 1504.22  143.31
  -7  -5   0  305.60   46.71
   7  -5   0  251.53   38.93
  -7   5   0  241.20   37.79
   7   5   0  321.40   45.42
  -8  -5   0  771.21   77.28
   8  -5   0  725.41   73.56
  -8   5   0  709.00   72.21
   8   5   0  884.03   84.44
  -9  -5   0  207.43   35.20
   9  -5   0  238.78   37.83
  -9   5   0  195.21   30.55
   9   5   0  254.89   40.39
 -10  -5   0  406.05   50.94
  10  -5   0  345.54   42.94
 -10   5   0  374.70   45.89
  10   5   0  430.95   52.16
 -11  -5   0  430.53   55.92
  11  -5   0  409.00   53.40
 -11   5   0  333.09   43.14
  11   5   0  426.44   53.80
 -12  -5   0  500.14   63.41
  12  -5   0  372.99   48.90
 -12   5   0  343.64   45.74
  12   5   0  466.91   92.21
 -13  -5   0  467.63   74.23
  13  -5   0  377.48   58.87
 -13   5   0  343.52   53.87
  13   5   0  483.90   74.63
 -14  -5   0  393.17   55.71
  14  -5   0  331.67   45.05
 -14   5   0  269.78   36.74
  14   5   0  423.48   58.80
 -15  -5   0  833.83  104.17
  15  -5   0  518.40   62.56
 -15   5   0  445.05   53.79
  15   5   0  668.98   81.22
 -16  -5   0  345.42   59.33
  16  -5   0  216.26   37.20
 -16   5   0  179.80   31.55
  16   5   0  307.10   57.14
 -17  -5   0  460.96   95.25
  17  -5   0  336.08   68.60
 -17   5   0  288.91   58.24
  17   5   0  448.87  130.42
   0  -5  -1 3071.72  274.19
   0  -5   1 2911.58  222.14
   0   5  -1 2803.77  234.92
   0   5   1 2523.58  193.92
   0   5  -1 2281.23  170.89
  -1  -5  -1  190.81   30.73
   1  -5  -1  241.16   36.99
  -1  -5   1  221.71   32.72
   1  -5   1  222.34   34.18
   1   5  -1  223.22   72.79
  -1   5  -1  196.27   36.82
   1   5   1  191.11   37.66
  -1   5   1  201.21   38.50
   1   5  -1  210.78   28.35
  -1   5  -1  180.94   23.59
  -2  -5   1 2394.95  185.04
   2  -5  -1 2599.03  203.36
   2  -5   1 2582.05  203.53
   2   5  -1 2656.61  236.83
   2   5   1 2554.06  200.34
  -2   5  -1 2080.08  168.72
  -2   5   1 2276.83  179.35
   2   5  -1 2147.69  164.63
  -2   5  -1 1817.99  137.87
  -3  -5  -1   40.83   21.46
  -3  -5   1   40.45   17.53
   3  -5  -1   42.00   21.57
   3  -5   1   28.47   17.38
   3   5  -1   37.57   22.14
   3   5   1   45.87   38.34
  -3   5  -1   32.92   28.53
  -3   5   1   32.21   18.02
   3   5  -1   43.20   30.67
  -4  -5  -1 2566.59  238.51
  -4  -5   1 2024.80  182.27
   4  -5  -1 2442.99  222.81
   4  -5   1 2426.60  223.36
   4   5   1 2164.18  199.80
  -4   5  -1 2160.74  201.16
  -4   5   1 2023.23  196.14
   4   5  -1 2543.59  228.43
  -5  -5  -1  448.28   61.06
  -5  -5   1  404.72   49.61
   5  -5  -1  499.20   67.70
   5  -5   1  339.87   46.27
   5   5   1  495.28   67.83
  -5   5  -1  394.76   70.17
  -5   5   1  344.26   52.29
   5   5   1  401.96   51.03
  -6  -5  -1 1853.37  181.36
  -6  -5   1 1697.39  158.75
   6  -5  -1 1459.65  140.10
   6  -5   1 1465.75  140.80
   6   5   1 2041.35  197.40
  -6   5  -1 1534.50  153.12
  -6   5   1 1572.86  156.48
   6   5  -1 2076.06  194.47
   6   5   1 1549.22  151.20
  -7  -5  -1  214.43   35.79
  -7  -5   1  204.00   33.47
   7  -5  -1  197.08   33.95
   7  -5   1  218.51   36.30
   7   5   1  211.64   39.65
  -7   5  -1  190.82   32.72
  -7   5   1  192.88   30.83
   7   5  -1  247.62   41.57
   7   5   1  227.01   36.74
  -8  -5  -1 1431.98  123.42
  -8  -5   1 1540.85  132.07
   8  -5  -1 1146.72  101.10
   8  -5   1 1348.23  116.53
  -8   5  -1 1082.95   94.96
  -8   5   1 1229.97  103.67
   8   5  -1 1414.26  123.63
   8   5   1 1532.61  131.39
  -9  -5  -1  815.95   81.44
  -9  -5   1  713.37   72.65
   9  -5  -1  699.80   72.08
   9  -5   1  717.15   70.72
  -9   5  -1  678.77   71.11
  -9   5   1  666.83   67.81
   9   5  -1  815.64   85.39
   9   5   1  907.07   86.12
 -10  -5  -1  935.08   88.42
 -10  -5   1 1061.75  101.68
  10  -5  -1  881.04   86.65
  10  -5   1  954.49   89.43
 -10   5  -1  701.37   68.96
 -10   5   1  865.37   79.14
  10   5  -1  965.73  101.58
  10   5   1 1038.86   95.62
 -11  -5  -1  339.70   47.58
 -11  -5   1  310.47   46.21
  11  -5  -1  273.18   38.89
  11  -5   1  314.45   42.53
 -11   5  -1  261.06   75.34
 -11   5   1  265.59   57.20
  11   5  -1  342.35   69.18
  11   5   1  358.68   50.03
 -12  -5  -1  914.74  129.81
 -12  -5   1  627.88   89.88
  12  -5  -1  587.60   84.59
  12  -5   1  623.57   86.94
 -12   5  -1  524.72   80.10
 -12   5   1  519.25   72.82
  12   5  -1  705.99  100.40
  12   5   1  705.33   74.81
 -13  -5  -1 1266.56  168.11
 -13  -5   1 1042.76  140.03
  13  -5  -1  890.44  118.29
  13  -5   1  952.46  126.21
 -13   5  -1  800.80  111.81
 -13   5   1  802.17  105.23
  13   5  -1 1128.52  150.18
  13   5   1 1094.97  148.48
 -14  -5  -1  379.66  151.23
 -14  -5   1  382.89   55.30
  14  -5  -1  291.53   41.09
  14  -5   1  299.32   42.27
 -14   5  -1  231.17   62.25
 -14   5   1  257.23   35.80
  14   5  -1  392.10   56.63
  14   5   1  342.22   83.84
 -15  -5  -1  382.68   59.64
 -15  -5   1  397.47   62.33
  15  -5  -1  307.12   47.13
  15  -5   1  311.49   50.69
 -15   5  -1  232.30   53.09
 -15   5   1  262.89   40.49
  15   5  -1  409.30   99.57
  15   5   1  363.17   89.61
 -16  -5  -1  236.01   64.22
 -16  -5   1  272.57   66.33
  16  -5  -1  189.34   43.57
  16  -5   1  190.47   47.04
 -16   5  -1  146.41   33.73
 -16   5   1  168.75   38.36
  16   5  -1  282.03   83.77
  16   5   1  227.95   54.24
   0  -5  -2 1853.96  170.12
   0  -5   2 2200.42  202.01
   0   5  -2 2460.17  239.75
   0   5   2 1913.96  175.96
   0   5  -2 2094.43  190.76
  -1  -5  -2  128.34   39.78
   1  -5  -2   90.00   25.25
  -1  -5   2   79.09   24.10
   1  -5   2   78.17   21.36
   1   5  -2   85.04   47.24
  -1   5  -2   85.41   65.06
   1   5   2   64.56   42.97
  -1   5   2   75.82   65.30
   1   5  -2   80.40   42.66
  -1   5  -2   63.28   52.77
  -2  -5  -2 1207.17  121.81
   2  -5  -2 1383.04  133.44
  -2  -5   2 1259.25  121.97
   2  -5   2 1171.67  117.17
   2   5  -2 1190.85  131.03
  -2   5  -2 1246.68  127.62
   2   5   2 1230.09  126.04
  -2   5   2 1030.29  102.40
   2   5  -2 1152.20  110.40
  -2   5  -2 1019.80   94.14
  -3  -5  -2   90.60   33.79
   3  -5  -2   95.50   26.07
  -3  -5   2   91.37   24.25
   3  -5   2   59.09   20.28
  -3   5  -2   72.19   54.29
   3   5   2   76.55   55.26
  -3   5   2   58.69   44.55
   3   5  -2   80.20   55.28
  -4  -5  -2 1664.90  167.52
  -4  -5   2 1487.85  139.23
   4  -5  -2 1551.22  147.98
   4  -5   2 1311.10  127.98
   4   5   2 1434.18  151.37
  -4   5  -2 1376.52  136.09
  -4   5   2 1323.71  130.29
   4   5  -2 1419.80  133.26
  -5  -5  -2  169.98   40.72
  -5  -5   2  186.98   31.13
   5  -5  -2  184.71   34.48
   5  -5   2  161.12   32.79
   5   5   2  192.90   66.80
  -5   5  -2  162.69   85.77
  -5   5   2  139.31   36.51
   5   5  -2  148.92   49.81
  -6  -5  -2  937.16   91.32
  -6  -5   2  959.10   82.78
   6  -5  -2  879.71   82.77
   6  -5   2  931.71   85.42
   6   5   2 1124.32  101.14
  -6   5  -2  887.24   87.11
  -6   5   2  841.11   77.73
   6   5  -2  962.57   84.83
  -7  -5  -2  184.97   40.27
  -7  -5   2  154.67   26.04
   7  -5  -2  153.90   32.95
   7  -5   2  144.35   25.56
   7   5   2  169.57   60.68
  -7   5  -2  141.74   93.06
  -7   5   2  146.03   25.84
   7   5  -2  149.93   43.97
  -8  -5  -2 1158.07  108.99
  -8  -5   2 1125.47   97.02
   8  -5  -2  699.59   69.55
   8  -5   2  994.68   89.29
  -8   5  -2  732.27   72.26
  -8   5   2  908.11   82.81
   8   5  -2 1008.13   94.59
  -9  -5  -2  180.25   34.44
  -9  -5   2  176.79   30.37
   9  -5  -2  126.78   28.63
   9  -5   2  180.46   31.30
   9   5   2  298.16   96.48
  -9   5  -2  127.56   26.11
  -9   5   2  149.07   27.90
   9   5  -2  182.65   33.09
 -10  -5  -2  827.59   94.06
 -10  -5   2  561.45   61.52
  10  -5  -2  473.72   56.12
  10  -5   2  575.74   62.38
  10   5   2  624.60   71.46
 -10   5  -2  456.60   56.01
 -10   5   2  501.70   60.13
  10   5  -2  591.64   65.25
 -11  -5  -2  551.27   67.63
 -11  -5   2  493.70   58.76
  11  -5  -2  326.33   42.37
  11  -5   2  430.50   51.97
  11   5   2  547.21   67.60
 -11   5  -2  322.30   75.17
 -11   5   2  365.09   47.60
  11   5  -2  442.84   85.02
 -12  -5  -2  480.18  101.39
 -12  -5   2  501.69   78.32
  12  -5  -2  386.09   59.39
  12  -5   2  415.76   64.74
 -12   5  -2  339.60   53.27
 -12   5   2  377.78   56.23
  12   5  -2  499.27   76.32
  12   5   2  452.67   68.61
 -13  -5  -2  376.28   53.38
 -13  -5   2  365.38   52.95
  13  -5  -2  328.96   44.94
  13  -5   2  349.92   49.71
 -13   5  -2  257.23   37.60
 -13   5   2  277.17   37.45
  13   5  -2  385.38   55.81
  13   5   2  343.07   48.85
 -14  -5  -2  231.76   57.16
 -14  -5   2  269.41   46.11
  14  -5  -2  159.86   30.53
  14  -5   2  187.59   36.18
 -14   5  -2  137.82   26.55
 -14   5   2  158.00   27.60
  14   5  -2  214.08  117.82
  14   5   2  224.10  107.43
 -15  -5  -2  441.07   66.58
 -15  -5   2  445.26   69.41
  15  -5  -2  338.16   49.65
  15  -5   2  379.04   55.86
 -15   5  -2  281.18   43.39
 -15   5   2  330.46   48.67
  15   5  -2  477.98   72.19
  15   5   2  479.26   84.48
 -16  -5  -2  218.42   63.44
 -16  -5   2  210.25   51.53
  16  -5  -2  157.56   36.27
  16  -5   2  183.89   42.87
 -16   5  -2  139.37   32.31
 -16   5   2  143.59   33.13
  16   5  -2  232.55   56.18
  16   5   2  196.08  120.36
   0  -5  -3 3186.12  236.37
   0  -5   3 2947.12  219.44
   0   5  -3 3478.31  284.35
   0   5   3 2479.31  192.38
   0   5  -3 2761.80  197.80
  -1  -5  -3  102.47   30.72
   1  -5  -3   69.70   22.10
  -1  -5   3   76.74   19.44
   1  -5   3   72.21   21.39
   1   5  -3   79.43   68.38
  -1   5  -3   91.78   54.26
   1   5   3   68.68   49.15
  -1   5   3   67.57   53.32
  -1   5  -3   70.65   51.85
  -2  -5  -3 1613.81  140.39
  -2  -5   3 1403.68  114.90
   2  -5   3 1182.38  100.37
  -2   5  -3 1561.79  135.45
   2   5   3 1253.13  119.08
  -2   5   3 1224.21  103.00
   2   5  -3 1339.59  106.45
  -3  -5  -3  100.76   30.68
   3  -5  -3   98.99   26.85
  -3  -5   3   90.55   26.50
   3  -5   3   79.60   23.04
  -3   5  -3   95.17   77.07
   3   5   3   76.71   30.48
  -3   5   3   64.59   34.18
   3   5  -3   75.70   65.55
  -4  -5  -3 2057.77  170.92
   4  -5  -3 2402.74  185.05
  -4  -5   3 1957.19  149.18
   4  -5   3 1878.22  148.98
  -4   5  -3 1757.04  144.69
   4   5   3 1934.09  164.84
  -4   5   3 1745.50  139.89
   4   5  -3 1861.08  151.87
  -5  -5  -3  414.61   52.01
  -5  -5   3  486.60   51.33
   5  -5  -3  424.13   48.07
   5  -5   3  386.40   43.96
  -5   5  -3  401.84   53.85
   5   5   3  461.90   53.47
  -5   5   3  380.03   44.66
   5   5  -3  403.24   45.79
  -6  -5  -3 1187.12  107.92
  -6  -5   3 1398.11  113.25
   6  -5  -3 1230.92  106.35
   6  -5   3 1142.61   98.41
   6   5   3 1286.33  105.03
  -6   5  -3  967.51   90.74
  -6   5   3 1006.40   99.22
   6   5  -3 1139.95  105.35
  -7  -5  -3  157.86   34.70
  -7  -5   3  149.61   26.37
   7  -5  -3  107.79   23.47
   7  -5   3  130.63   29.55
   7   5   3  149.14   28.05
  -7   5  -3  114.11   73.48
  -7   5   3  102.05   42.04
   7   5  -3  110.62   81.49
  -8  -5  -3 1141.21  110.56
  -8  -5   3 1233.66  108.43
   8  -5  -3  912.44   89.75
   8  -5   3 1071.80   99.38
   8   5   3 1321.86  117.16
  -8   5  -3  876.78   89.68
  -8   5   3  955.50   88.08
   8   5  -3 1190.27  108.08
  -9  -5  -3  645.67   76.44
  -9  -5   3  643.92   65.57
   9  -5  -3  351.20   44.69
   9  -5   3  512.22   57.17
   9   5   3  688.62   72.59
  -9   5  -3  367.04   46.13
  -9   5   3  421.95   49.31
   9   5  -3  519.94   62.67
 -10  -5  -3  902.62  125.15
 -10  -5   3  781.31  102.87
  10  -5  -3  554.39   78.57
  10  -5   3  739.09  101.03
 -10   5  -3  487.90   72.06
 -10   5   3  649.21   86.59
  10   5  -3  810.61  113.46
 -11  -5  -3  289.13   52.83
 -11  -5   3  249.68   40.71
  11  -5  -3  207.00   40.01
  11  -5   3  249.82   42.33
 -11   5  -3  200.79   37.90
 -11   5   3  217.29   36.05
  11   5  -3  292.39   50.25
 -12  -5  -3  688.14   82.20
  12  -5  -3  469.25   55.95
  12  -5   3  584.91   65.20
 -12   5  -3  419.09   54.53
 -12   5   3  516.15   57.73
  12   5  -3  681.04   77.68
 -13  -5  -3  649.95   90.96
  13  -5  -3  478.15   66.07
  13  -5   3  557.96   74.96
 -13   5  -3  411.60   63.01
 -13   5   3  486.90   64.44
  13   5  -3  655.62   89.88
 -14  -5  -3  213.60   42.72
  14  -5  -3  185.39   31.69
  14  -5   3  243.04   40.70
 -14   5  -3  145.23   50.74
 -14   5   3  196.47   34.50
  14   5  -3  260.76   66.24
 -15  -5  -3  381.35   80.52
  15  -5  -3  270.46   55.73
  15  -5   3  342.86   70.08
 -15   5  -3  205.70   43.45
 -15   5   3  264.95   55.42
  15   5  -3  364.38   77.67
   0  -5   4 1301.37  107.11
   0   5  -4 1358.00  126.39
   0   5   4 1144.67   93.43
   0   5  -4 1366.32  115.89
  -1  -5  -4   29.79   17.64
   1  -5  -4   29.93   14.41
  -1  -5   4   23.47   13.90
   1  -5   4   29.09   15.70
  -1   5  -4   39.23   30.42
   1   5   4   20.01   16.95
  -1   5   4   21.41   18.41
   1   5  -4   26.42   26.58
  -2  -5  -4 1169.54  111.26
   2  -5  -4 1064.11   93.13
  -2  -5   4  888.77   79.09
   2  -5   4  764.60   68.40
  -2   5  -4 1000.78   96.18
   2   5   4  846.49   74.94
  -2   5   4  753.07   83.13
   2   5  -4  921.07   84.76
  -3  -5  -4   34.36   25.71
   3  -5  -4   25.60   17.87
  -3  -5   4   24.59   17.39
   3  -5   4   22.89   14.93
  -3   5  -4   32.34   26.20
   3   5   4   19.95   14.35
  -3   5   4   20.45   12.32
   3   5  -4   12.61   14.67
  -4  -5  -4  845.42   89.66
   4  -5  -4  971.07   92.11
  -4  -5   4 1005.13   94.90
   4  -5   4  868.61   83.78
  -4   5  -4  923.66   92.72
   4   5   4  774.79   76.90
  -4   5   4  648.35   63.87
   4   5  -4  892.70  103.98
  -5  -5  -4  107.00   31.60
   5  -5  -4  120.40   24.96
  -5  -5   4  116.10   23.09
   5  -5   4  106.93   25.41
  -5   5  -4   99.00   58.79
   5   5   4   96.40   46.58
  -5   5   4   81.57   24.81
   5   5  -4  117.26   65.10
  -6  -5  -4  688.16   80.37
   6  -5  -4  644.56   68.07
  -6  -5   4  847.85   83.18
   6  -5   4  597.47   62.19
  -6   5  -4  564.82   63.03
  -6   5   4  448.86   45.71
   6   5  -4  693.37   70.75
  -7  -5  -4  144.77   37.73
  -7  -5   4  164.80   33.56
   7  -5  -4  115.32   27.47
   7  -5   4  134.81   29.81
  -7   5  -4  111.51   61.04
  -7   5   4   97.30   33.80
   7   5  -4  132.09   51.39
  -8  -5  -4  780.52  110.65
   8  -5  -4  580.12   81.67
   8  -5   4  672.32   90.52
  -8   5  -4  535.39   87.98
  -8   5   4  608.65   81.33
   8   5  -4  824.24  110.93
  -9  -5  -4  298.32   52.04
   9  -5  -4  155.83   27.88
   9  -5   4  192.45   29.94
  -9   5  -4  139.80   67.05
  -9   5   4  162.94   24.80
   9   5  -4  218.36   53.50
 -10  -5  -4  646.09   82.10
  10  -5  -4  379.12   48.11
  10  -5   4  490.44   56.73
 -10   5  -4  291.84   40.82
 -10   5   4  385.82   44.31
  10   5  -4  557.21   67.26
 -11  -5  -4  280.45   50.32
  11  -5  -4  200.73   35.77
  11  -5   4  240.27   39.19
 -11   5  -4  156.95   30.09
 -11   5   4  197.11   31.12
  11   5  -4  279.46  133.04
 -12  -5  -4  288.32   50.81
  12  -5   4  264.00   43.43
 -12   5  -4  146.47   48.32
 -12   5   4  191.06   30.71
  12   5  -4  271.92   47.08
 -13  -5  -4  291.30   63.72
  13  -5   4  253.43   54.13
 -13   5  -4  159.90   39.95
 -13   5   4  219.54   45.59
  13   5  -4  324.53   70.46
   0  -5   5 1480.81  185.09
   0   5  -5 1506.28  194.16
   0   5   5  974.32  122.86
  -1  -5  -5   12.09   23.26
   1  -5  -5   16.08   16.53
  -1  -5   5   10.69   11.59
   1  -5   5    8.91   16.18
  -1   5  -5    8.63   20.61
  -1   5   5    2.08    7.92
  -2  -5  -5 1109.79  152.44
   2  -5  -5  959.58  126.74
  -2  -5   5  750.46   97.59
   2  -5   5  801.03  105.93
  -2   5  -5  992.50  140.21
  -2   5   5  592.48   81.53
   2   5  -5  841.41  114.15
  -3  -5  -5   13.64   21.42
   3  -5  -5   17.86   19.24
   3  -5   5   15.37   15.72
  -3   5  -5   12.09   18.13
  -3   5   5    6.69   10.87
   3   5  -5    8.88    9.84
  -4  -5  -5 1511.14  185.46
   4  -5  -5 1644.13  194.24
   4  -5   5 1346.89  126.64
  -4   5  -5 1744.41  212.54
  -4   5   5 1030.19   96.14
   4   5  -5 1669.34  198.06
  -5  -5  -5  111.55   29.75
   5  -5  -5  101.43   24.02
   5  -5   5  108.95   23.78
  -5   5  -5  100.52   24.99
  -5   5   5   72.45   15.15
   5   5  -5   92.68   91.15
  -6  -5  -5  837.23   97.05
   6  -5  -5  703.83   75.54
   6  -5   5  616.41   65.92
  -6   5  -5  711.16   84.91
  -6   5   5  500.22   52.08
   6   5  -5  753.18   81.29
  -7  -5  -5  135.06   33.20
   7  -5  -5   86.11   20.15
   7  -5   5  127.19   25.47
  -7   5  -5   82.70   74.28
  -7   5   5   93.14   19.09
   7   5  -5  110.25   83.97
  -8  -5  -5 1013.56  131.15
   8  -5   5  872.87  107.74
  -8   5  -5  714.95   96.10
  -8   5   5  724.82   87.82
   8   5  -5 1053.30  130.85
  -9  -5  -5  414.29   71.16
   9  -5   5  289.49   44.44
  -9   5  -5  175.79   32.81
  -9   5   5  216.85   32.75
   9   5  -5  300.30   87.48
 -10  -5  -5  321.61   72.15
  10  -5   5  272.39   56.90
 -10   5   5  214.60   44.58
  10   5  -5  274.29   59.54
 -11  -5  -5  372.33   79.32
  11  -5   5  337.99   68.16
 -11   5   5  276.19   54.99
  11   5  -5  383.15   78.32
   0  -5  -6  728.66   98.43
   0   5  -6  658.93  112.61
  -1  -5  -6    1.95   12.34
   1  -5  -6    6.41   10.82
  -1   5  -6   12.91   22.28
  -2  -5  -6  758.25  104.45
   2  -5  -6  874.91  114.73
  -2   5  -6  709.99  107.63
  -3  -5  -6   -0.29   15.94
  -3   5  -6    3.84    8.44
   3   5  -6    1.09    6.62
  -4  -5  -6  776.19  152.09
   4  -5   6  540.90  101.59
  -4   5  -6  758.11  145.54
   4   5  -6  702.26  134.07
  -5  -5  -6   82.70   30.48
   5  -5   6   72.73   20.88
  -5   5  -6   63.29   92.17
  -5   5   6   42.69   14.81
   5   5  -6   63.87   56.62
  -6  -5  -6  536.38  109.63
   6  -5   6  392.72   76.03
  -6   5   6  314.32   59.90
   6   5  -6  511.06   99.28
   0  -6   0 1692.75  143.05
   0   6   0 1204.37  154.53
  -1  -6   0    3.22   13.69
   1  -6   0    6.48   25.02
   1   6   0    5.26   10.47
  -1   6   0    2.27    8.34
  -2  -6   0 1296.32  111.29
   2  -6   0 1356.45  117.81
   2   6   0 1218.40  111.09
  -2   6   0 1145.05  103.45
  -3  -6   0  393.26   52.49
   3  -6   0  398.93   57.96
   3   6   0  403.79   56.20
  -3   6   0  352.58   49.78
   3   6   0  290.42   38.32
  -4  -6   0 1155.77  109.78
   4  -6   0 1196.90  116.69
   4   6   0 1115.30  129.32
  -4   6   0 1042.52  146.42
   4   6   0  944.23   96.57
  -5  -6   0   69.59   22.86
   5  -6   0   80.82   34.68
   5   6   0   78.61   83.71
  -5   6   0   56.37   38.52
   5   6   0   68.73   73.30
  -6  -6   0 1906.14  250.37
   6  -6   0 1109.63  108.01
   6   6   0 1565.64  148.59
  -6   6   0 1020.61  101.38
   6   6   0 1303.57  121.06
  -7  -6   0  363.38   63.33
   7  -6   0  312.50   55.31
   7   6   0  305.21   54.08
  -7   6   0  225.57  142.38
   7   6   0  300.17   56.44
  -8  -6   0  747.60  105.67
   8  -6   0  699.74  101.57
   8   6   0  781.09  132.17
  -8   6   0  609.07   89.61
   8   6   0  731.38  106.33
  -9  -6   0  102.29   30.97
   9  -6   0   86.71   29.91
  -9   6   0   71.94   58.33
   9   6   0   86.65   86.61
 -10  -6   0  858.71  102.37
  10  -6   0  521.18   67.00
 -10   6   0  559.00   72.80
  10   6   0  729.16   84.94
 -11  -6   0  787.80  111.22
  11  -6   0  647.53   92.45
 -11   6   0  562.66   80.13
  11   6   0  819.02  109.87
 -12  -6   0  472.88   84.16
  12  -6   0  324.35   61.31
 -12   6   0  257.59   45.66
  12   6   0  350.05   61.48
 -13  -6   0  158.63   45.31
  13  -6   0  132.63   38.40
 -13   6   0   94.66   70.46
  13   6   0  155.07  114.00
   0  -6  -1 2178.54  187.59
   0  -6   1 2003.00  157.58
   0   6  -1 2185.93  239.34
   0   6   1 1630.63  154.36
   0   6  -1 1601.97  123.41
  -1  -6  -1    8.14   25.36
   1  -6  -1   13.93   23.21
  -1  -6   1   13.53   23.89
   1  -6   1   17.00   24.78
   1   6  -1   16.32   17.54
  -1   6  -1    4.80   21.00
   1   6   1   11.37   14.00
  -1   6   1    6.18   16.73
   1   6  -1    5.23   11.36
  -2  -6  -1 1635.05  150.35
  -2  -6   1 1609.44  144.05
   2  -6  -1 1699.30  154.35
   2  -6   1 1405.79  127.85
   2   6  -1 1518.26  145.02
   2   6   1 1304.23  121.85
  -2   6  -1 1342.27  126.48
  -2   6   1 1233.33  126.65
   2   6  -1 1234.14  126.54
  -3  -6  -1   95.16   29.10
  -3  -6   1   83.07   22.45
   3  -6  -1  108.80   30.85
   3  -6   1   90.03   25.94
   3   6  -1   90.47   68.79
   3   6   1   76.42   70.46
  -3   6  -1   88.98   62.48
  -3   6   1   83.69   57.70
   3   6  -1   73.19   59.55
  -4  -6  -1 1890.96  241.96
  -4  -6   1 1650.35  144.21
   4  -6  -1 2081.96  264.48
   4  -6   1 1849.46  165.65
   4   6  -1 2089.07  292.31
   4   6   1 1684.41  152.29
  -4   6  -1 1510.53  137.04
  -4   6   1 1476.98  137.51
   4   6  -1 1502.47  143.02
  -5  -6  -1  136.35   32.19
  -5  -6   1  149.81   29.46
   5  -6  -1  155.08   33.90
   5  -6   1  127.92   29.49
   5   6  -1  143.84   65.95
   5   6   1  161.35  119.57
  -5   6  -1  115.66   30.91
  -5   6   1  115.16   60.93
   5   6  -1  120.50   83.41
  -6  -6  -1  810.04  114.58
  -6  -6   1  722.89   98.70
   6  -6  -1  893.19  125.01
   6  -6   1  705.87  102.51
   6   6  -1  813.42  114.91
   6   6   1  888.92  127.58
  -6   6  -1  687.70   96.77
  -6   6   1  695.35   98.43
   6   6  -1  882.22  129.22
  -7  -6  -1  248.70   51.86
  -7  -6   1  177.55   33.99
   7  -6  -1  196.24   43.60
   7  -6   1  179.58   41.68
   7   6   1  229.09   49.79
  -7   6  -1  188.77   39.92
  -7   6   1  184.19   94.33
   7   6  -1  199.70   60.60
  -8  -6  -1 1592.78  213.96
  -8  -6   1 1388.04  179.58
   8  -6  -1 1305.11  172.97
   8  -6   1 1253.09  168.33
   8   6   1 1472.51  212.95
  -8   6  -1 1048.53  147.32
  -8   6   1 1037.31  138.09
   8   6  -1 1429.03  185.82
   8   6   1 1309.08  174.17
  -9  -6  -1  355.14   61.68
  -9  -6   1  311.82   48.59
   9  -6  -1  260.68   44.96
   9  -6   1  246.27   44.79
   9   6   1  533.95   80.16
  -9   6  -1  245.24   42.42
  -9   6   1  228.91   40.00
   9   6  -1  305.64   49.88
   9   6   1  306.64   48.38
 -10  -6  -1  542.91   76.55
 -10  -6   1  504.22   66.55
  10  -6  -1  421.82   63.14
  10  -6   1  458.97   63.36
  10   6   1  547.37   70.43
 -10   6  -1  345.22   49.29
 -10   6   1  404.60   55.74
  10   6  -1  572.67   73.42
  10   6   1  482.16   97.44
 -11  -6  -1  462.60   73.71
 -11  -6   1  460.22   72.81
  11  -6  -1  301.46   53.21
  11  -6   1  404.08   64.67
  11   6   1  524.97   78.04
 -11   6  -1  302.97   51.81
 -11   6   1  344.04   54.36
  11   6  -1  483.75   75.02
  11   6   1  447.07   71.40
 -12  -6  -1  529.53   80.25
 -12  -6   1  628.42   91.72
  12  -6  -1  441.74   68.43
  12  -6   1  514.70   76.75
 -12   6  -1  376.87   58.54
 -12   6   1  425.64   62.68
  12   6  -1  699.63  105.75
  12   6   1  569.99   87.28
 -13  -6  -1  398.60   88.80
 -13  -6   1  401.22   88.59
  13  -6  -1  268.03   60.47
  13  -6   1  285.36   64.53
 -13   6  -1  213.75   73.18
 -13   6   1  239.86   53.00
  13   6  -1  388.57   85.37
  13   6   1  341.60   73.03
   0  -6  -2 1473.39  140.31
   0  -6   2 1121.50  105.38
   0   6  -2 1231.55  129.89
   0   6   2 1005.88  103.56
  -1  -6  -2   18.50   15.02
   1  -6  -2   18.95   25.91
  -1  -6   2   24.58   20.71
   1  -6   2   17.21   12.41
   1   6  -2   13.75   20.52
  -1   6  -2   14.86   19.11
   1   6   2   11.76   11.90
  -1   6   2    8.03    9.51
   1   6  -2   14.93   14.13
  -2  -6  -2 1214.91  113.50
   2  -6  -2 1629.49  150.92
  -2  -6   2 1215.06  110.71
   2  -6   2 1348.87  127.31
   2   6  -2 1633.55  173.33
  -2   6  -2 1269.96  123.04
   2   6   2 1105.30  103.08
  -2   6   2 1041.08  101.85
   2   6  -2 1197.57  110.11
  -3  -6  -2  144.04   38.33
   3  -6  -2  149.73   38.74
  -3  -6   2  107.29   23.97
   3  -6   2  113.03   27.26
   3   6  -2  145.78  121.32
  -3   6  -2  119.05   37.69
   3   6   2  114.54   48.54
  -3   6   2   98.91   66.85
   3   6  -2  106.56   72.46
  -4  -6  -2 1393.67  186.16
  -4  -6   2 1289.87  167.46
   4  -6  -2 1239.87  162.00
   4  -6   2 1088.21  144.83
   4   6  -2 1152.74  165.18
   4   6   2 1073.68  139.82
  -4   6  -2 1061.06  142.51
  -4   6   2 1007.91  138.06
   4   6  -2 1310.00  172.35
  -5  -6  -2   37.45   35.63
  -5  -6   2   25.34   18.86
   5  -6  -2   35.79   25.19
   5  -6   2   31.48   21.98
   5   6   2   23.48   25.65
  -5   6  -2   33.13   24.06
  -5   6   2   17.87   17.32
   5   6  -2   29.81   22.44
  -6  -6  -2 1369.49  189.33
  -6  -6   2 1020.46  132.98
   6  -6  -2 1065.84  141.88
   6  -6   2 1025.17  139.19
   6   6   2 1055.62  140.58
  -6   6  -2  845.79  152.53
  -6   6   2  833.24  112.04
   6   6  -2 1390.09  183.54
  -7  -6  -2  403.14   67.03
  -7  -6   2  344.46   45.94
   7  -6  -2  381.47   57.96
   7  -6   2  281.03   43.81
   7   6   2  378.78   52.67
  -7   6  -2  285.07   44.98
  -7   6   2  277.94   73.44
   7   6  -2  404.09  102.69
  -8  -6  -2  828.41  113.27
  -8  -6   2  583.87   67.96
   8  -6  -2  487.17   61.91
   8  -6   2  460.72   60.37
   8   6   2  669.62   83.07
  -8   6  -2  448.97   58.75
  -8   6   2  432.75   55.11
   8   6  -2  639.10   79.45
  -9  -6  -2  115.45   39.50
  -9  -6   2   96.50   22.53
   9  -6  -2   81.87   24.41
   9  -6   2  107.38   29.54
   9   6   2   87.90   85.27
  -9   6  -2   81.13   64.57
  -9   6   2   70.25   64.05
   9   6  -2   99.31   99.00
 -10  -6  -2  533.19   82.50
 -10  -6   2  425.96   60.76
  10  -6  -2  406.54   62.90
  10  -6   2  443.73   67.79
  10   6   2  628.39   87.79
 -10   6  -2  410.97   62.99
 -10   6   2  378.74   57.00
  10   6  -2  576.81  103.89
 -11  -6  -2  540.13   86.10
 -11  -6   2  516.39   73.12
  11  -6  -2  336.56   54.44
  11  -6   2  450.39   69.36
  11   6   2  620.11   88.49
 -11   6  -2  315.23   49.79
 -11   6   2  372.18   55.21
  11   6  -2  570.02   85.24
 -12  -6  -2  239.00   61.18
 -12  -6   2  309.49   71.53
  12  -6  -2  128.02   36.94
  12  -6   2  187.92   48.13
  12   6   2  308.72   72.52
 -12   6  -2  124.37   94.90
 -12   6   2  172.76   61.78
  12   6  -2  216.91   77.48
   0  -6  -3 1514.95  196.35
   0  -6   3 1268.74  165.72
   0   6  -3 1381.04  183.70
   0   6   3 1061.05  138.00
  -1  -6  -3   -0.47   15.35
   1  -6  -3   17.81   22.82
  -1  -6   3   12.10   19.89
   1  -6   3    3.95   18.06
   1   6  -3    4.34    9.04
  -1   6  -3    5.09   16.95
   1   6   3    0.33   11.92
  -1   6   3    4.36   13.11
  -2  -6  -3 1117.36  151.51
   2  -6  -3 1032.71  137.24
  -2  -6   3  920.45  121.86
   2  -6   3  862.36  117.16
   2   6  -3 1570.20  214.83
  -2   6  -3 1148.57  171.09
   2   6   3  919.50  122.04
  -2   6   3  837.45  115.28
   2   6  -3 1004.19  132.29
  -3  -6  -3   24.32   25.16
   3  -6  -3   20.38   23.15
  -3  -6   3   19.59   18.20
   3  -6   3   23.13   18.74
   3   6  -3   15.80   23.65
  -3   6  -3   17.39   14.98
   3   6   3   18.05   15.19
  -3   6   3    7.22   18.30
   3   6  -3   23.93   22.42
  -4  -6  -3 1561.14  194.39
   4  -6  -3 1648.50  197.77
  -4  -6   3 1671.65  199.62
   4  -6   3 1336.90  134.10
  -4   6  -3 1438.58  146.38
   4   6   3 1385.16  140.30
  -4   6   3 1158.74  144.67
   4   6  -3 1561.87  187.07
  -5  -6  -3  135.56   41.48
  -5  -6   3  125.76   29.36
   5  -6  -3  142.96   31.62
   5  -6   3   91.83   24.03
  -5   6  -3   98.22   88.85
   5   6   3  131.71   63.34
  -5   6   3   86.89   61.67
   5   6  -3  120.45   92.14
  -6  -6  -3 1182.02  138.05
  -6  -6   3  998.40  100.70
   6  -6  -3  983.13  102.41
   6  -6   3  843.97   92.23
   6   6   3  971.05  107.79
  -6   6  -3  889.30  122.55
  -6   6   3  756.97   81.29
   6   6  -3 1030.93  124.31
  -7  -6  -3  211.18   67.65
  -7  -6   3  148.08   29.14
   7  -6  -3  119.49   28.12
   7  -6   3  123.43   30.12
   7   6   3  131.77   93.20
  -7   6  -3  106.66   84.30
  -7   6   3   89.12   58.77
   7   6  -3  130.88  113.70
  -8  -6  -3  820.51  114.52
  -8  -6   3  932.55  117.88
   8  -6  -3  707.29   95.12
   8  -6   3  763.53  103.19
   8   6   3  960.51  123.01
  -8   6  -3  589.05   97.34
  -8   6   3  609.86  152.57
   8   6  -3  863.41  114.02
  -9  -6  -3  294.30   54.77
  -9  -6   3  338.96   52.11
   9  -6  -3  290.16   51.60
   9  -6   3  301.64   51.72
  -9   6  -3  229.73   63.33
  -9   6   3  251.50   40.27
   9   6  -3  338.51   57.87
 -10  -6  -3  470.52   99.35
 -10  -6   3  602.01  116.49
  10  -6  -3  363.16   75.49
  10  -6   3  447.74   90.51
 -10   6  -3  333.85   73.65
 -10   6   3  365.13   72.76
  10   6  -3  506.34  101.52
 -11  -6  -3  309.41   78.15
  11  -6  -3  198.17   46.71
  11  -6   3  264.35   59.58
 -11   6  -3  170.05   41.36
 -11   6   3  212.40   55.03
   0  -6  -4  742.30   84.18
   0  -6   4  651.28   76.93
   0   6  -4  770.27   98.96
   0   6   4  522.59   63.39
  -1  -6  -4    4.82   13.10
   1  -6  -4   -1.98   16.86
  -1  -6   4    8.16   20.32
   1  -6   4   10.16   24.82
   1   6  -4   -0.01   14.95
  -1   6  -4    9.42   11.48
   1   6   4    5.12    8.21
  -1   6   4    4.06    7.28
  -2  -6  -4 1774.95  224.10
   2  -6  -4 1151.14  116.23
  -2  -6   4 1115.74  113.94
   2  -6   4  965.03  100.52
   2   6  -4 1231.26  136.26
  -2   6  -4 1147.23  121.10
   2   6   4 1011.69  103.59
  -2   6   4  830.57   91.04
  -3  -6  -4   47.94   27.36
   3  -6  -4   42.70   23.54
  -3  -6   4   40.25   18.45
   3  -6   4   46.50   18.89
   3   6  -4   44.90   41.37
  -3   6  -4   43.32   31.01
   3   6   4   27.19   27.34
  -3   6   4   28.26   25.23
   3   6  -4   31.58   34.59
  -4  -6  -4  875.70  127.68
   4  -6  -4  653.77   89.50
  -4  -6   4  655.97   88.38
   4  -6   4  566.94   80.45
  -4   6  -4  610.18   88.79
  -4   6   4  463.98   63.63
   4   6  -4  674.52   95.44
  -5  -6  -4   34.25   37.02
   5  -6  -4   27.99   20.83
  -5  -6   4   37.92   20.88
   5  -6   4   29.96   19.05
  -5   6  -4   26.06   23.25
  -5   6   4   14.29   17.94
   5   6  -4   16.86   16.78
  -6  -6  -4  821.88  119.98
   6  -6  -4  779.49  100.92
   6  -6   4  666.13   90.32
  -6   6  -4  693.51   94.68
  -6   6   4  534.83   73.58
   6   6  -4  884.66  115.04
  -7  -6  -4  263.56   67.13
   7  -6  -4  226.07   49.69
   7  -6   4  222.91   51.07
  -7   6  -4  200.41   47.08
  -7   6   4  149.92   91.76
   7   6  -4  258.88   58.14
  -8  -6  -4  432.32   97.51
   8  -6  -4  368.66   74.55
   8  -6   4  354.17   73.13
  -8   6  -4  292.01   63.19
  -8   6   4  293.88   61.17
   8   6  -4  422.19  102.60
   0  -6  -5  931.00  173.71
   0  -6   5  798.15  149.70
   0   6  -5 1099.48  209.33
  -1  -6  -5   38.70   21.67
   1  -6  -5   60.21   29.25
  -1  -6   5   39.56   23.28
   1  -6   5   37.74   20.43
   1   6  -5   57.05   53.29
  -1   6  -5   50.36   46.48
  -2  -6  -5 1525.17  287.35
   2  -6  -5  934.65  172.41
   2  -6   5  857.84  160.16
   2   6  -5 1065.09  202.87
  -2   6  -5 1034.26  194.95
  -2   6   5  569.61  112.34
  -3  -6  -5   14.56   31.42
   3  -6  -5    6.68   13.48
   3  -6   5   13.60   20.20
   3   6  -5   11.77   18.65
  -3   6  -5   12.46   11.32
  -3   6   5    2.54   11.24
   0  -7   0 1110.98  143.70
   0   7   0  873.35  164.90
  -1  -7   0    6.17   19.70
   1  -7   0   15.65   22.75
   1   7   0    7.31   11.60
  -1   7   0   11.89   12.61
  -2  -7   0 2398.29  432.19
   2  -7   0 2335.67  421.94
   2   7   0 1830.54  335.66
  -2   7   0 1706.45  312.40
  -3  -7   0   54.21   25.30
   3  -7   0   64.26   30.36
   3   7   0   45.74   47.63
  -3   7   0   51.60   35.59
  -4  -7   0  936.51  125.53
   4  -7   0  896.49  121.95
   4   7   0  920.89  131.10
  -4   7   0  628.52   95.84
  -5  -7   0  138.04   43.56
   5  -7   0  139.93   45.76
   5   7   0  116.22   70.34
  -5   7   0   91.77   94.12
  -6  -7   0 1772.04  321.82
   6  -7   0 1734.75  316.54
   6   7   0 1778.98  324.23
  -6   7   0 1366.74  251.60
   6   7   0 1335.14  241.76
  -7  -7   0  205.35   49.74
   7  -7   0  227.53   57.80
   7   7   0  246.65  129.34
  -7   7   0  159.90  103.50
   7   7   0  207.49   49.97
   0  -7  -1 1191.35  153.38
   0  -7   1 1126.94  146.26
   0   7  -1  971.56  141.38
   0   7   1  846.67  110.66
  -1  -7  -1   18.61   24.03
   1  -7  -1   24.05   23.18
  -1  -7   1   12.95   17.14
   1  -7   1   16.26   20.34
   1   7  -1   12.60   24.78
  -1   7  -1   12.51   21.98
   1   7   1   10.72    9.97
  -1   7   1   23.08   19.73
  -2  -7  -1  530.85   80.96
  -2  -7   1  510.72   74.61
   2  -7  -1  544.60   81.53
   2  -7   1  467.71   70.52
   2   7  -1  566.64   89.78
   2   7   1  450.18   68.65
  -2   7  -1  437.05  109.70
  -2   7   1  376.77   59.06
  -3  -7  -1   24.73   32.32
  -3  -7   1    6.15   16.07
   3  -7  -1   11.56   31.95
   3  -7   1    5.88   18.90
   3   7  -1    4.45   13.10
   3   7   1    5.73   15.23
  -3   7  -1   11.63   17.78
  -3   7   1   -3.49   16.42
   3   7  -1    4.76    9.88
  -4  -7  -1  978.96  186.73
  -4  -7   1  886.43  167.58
   4  -7  -1  920.55  175.34
   4  -7   1  762.69  146.46
   4   7  -1  881.58  169.91
   4   7   1  801.73  156.45
  -4   7  -1  682.66  132.02
  -4   7   1  640.09  158.73
   4   7  -1  642.66  137.56
  -5  -7  -1  106.03   37.48
  -5  -7   1   86.94   31.93
   5  -7  -1   90.70   33.93
   5  -7   1   94.08   34.34
   5   7  -1   69.63   69.91
   5   7   1   64.85   41.96
  -5   7  -1   50.59   39.18
  -5   7   1   62.47   68.43
   5   7  -1   76.42   69.75
  -6  -7  -1  266.57   66.07
  -6  -7   1  322.84   71.50
   6  -7  -1  315.32   71.91
   6  -7   1  298.09   69.80
   6   7  -1  308.83  156.67
   6   7   1  331.02   75.16
  -6   7  -1  235.48   72.29
  -6   7   1  249.52   70.80
   6   7  -1  301.33   66.25
   0  -7  -2 1256.01  234.19
   0  -7   2  894.35  166.69
   0   7  -2 1092.77  205.87
   0   7   2  842.77  174.37
  -1  -7  -2   17.25   31.44
   1  -7  -2    1.26   20.97
  -1  -7   2    5.03   16.18
   1  -7   2   -5.60   18.28
   1   7  -2    7.09   17.28
  -1   7  -2    6.06   20.59
   1   7   2    2.54   11.77
  -1   7   2   -1.37   13.07
  -2  -7  -2 2017.86  366.30
   2  -7  -2 1895.31  343.24
  -2  -7   2 1781.18  322.52
   2  -7   2 1517.47  275.97
   2   7  -2 2252.08  411.57
  -2   7  -2 1409.25  257.26
   2   7   2 1387.01  253.45
  -2   7   2 1321.22  243.99
  -3  -7  -2   59.07   31.98
   3  -7  -2   67.19   32.24
  -3  -7   2   55.46   24.19
   3  -7   2   45.76   24.48
   3   7  -2   39.80   36.67
  -3   7  -2   49.86   44.67
   3   7   2   33.18   36.21
  -3   7   2   36.14   22.90
  -4  -7  -2  895.51  170.63
  -4  -7   2  776.57  146.16
   4  -7  -2 1019.96  193.60
   4  -7   2  811.86  154.88
   4   7  -2  976.59  191.60
   4   7   2  713.53  139.62
  -4   7  -2  796.33  154.46
  -4   7   2  682.06  130.66
  -5  -7   2   63.88   24.06
   5  -7  -2   65.55   29.59
   5  -7   2   75.78   34.30
   5   7  -2   80.34   78.51
   5   7   2   50.94   55.71
  -5   7  -2   54.46   39.12
  -5   7   2   35.53   36.93
   0   0   0    0.00    0.00
;
_shelx_hkl_checksum              17674
loop_
_space_group_symop_operation_xyz
'x, y, z'
'-x, -y, z+1/2'
'-x, y, z'
'x, -y, z+1/2'
loop_
_atom_site_label
_atom_site_type_symbol
_atom_site_fract_x
_atom_site_fract_y
_atom_site_fract_z
_atom_site_U_iso_or_equiv
_atom_site_adp_type
_atom_site_occupancy
_atom_site_site_symmetry_order
_atom_site_calc_flag
_atom_site_refinement_flags_posn
_atom_site_refinement_flags_adp
_atom_site_refinement_flags_occupancy
_atom_site_disorder_assembly
_atom_site_disorder_group
Pb1 Pb 0.26013(2) 0.22843(7) 0.8597(3) 0.01458(12) Uani 1 1 d . . . . .
S11 S 0.5000 -0.1577(7) 0.8633(12) 0.0154(6) Uani 1 2 d S TU P . .
S21 S 0.0000 0.4372(9) 0.4349(9) 0.0260(14) Uani 1 2 d S T P . .
O11 O 0.3519(6) -0.0833(17) 0.6806(16) 0.0250(7) Uani 1 1 d D U . . .
O12 O 0.3180(6) -0.453(2) 0.6626(18) 0.0382(7) Uani 1 1 d D U . . .
O21 O 0.1950(6) 0.172(2) 0.540(2) 0.035(3) Uani 1 1 d D . . . .
O22 O 0.1585(6) 0.5079(19) 0.4090(17) 0.043(3) Uiso 1 1 d D . . . .
C11 C 0.3632(6) -0.2950(18) 0.707(2) 0.0235(7) Uani 1 1 d D U . . .
C12 C 0.4337(6) -0.369(2) 0.8003(16) 0.0143(7) Uani 1 1 d D U . A 1
C13 C 0.4631(6) -0.5924(19) 0.8245(18) 0.0141(7) Uani 1 1 d D U . . .
C21 C 0.1479(8) 0.316(2) 0.488(2) 0.0338(7) Uani 1 1 d D U . . .
C22 C 0.0689(10) 0.252(2) 0.495(3) 0.0286(7) Uani 1 1 d D U . . .
C23 C 0.0401(8) 0.024(2) 0.553(2) 0.0254(7) Uani 1 1 d D U . . .
H23 H 0.0694 -0.1045 0.5865 0.031 Uiso 1 1 calc R . . . .
H13 H 0.4367(19) -0.733(4) 0.812(16) 0.00(4) Uiso 1 1 d D . . . .
loop_
_atom_site_aniso_label
_atom_site_aniso_U_11
_atom_site_aniso_U_22
_atom_site_aniso_U_33
_atom_site_aniso_U_23
_atom_site_aniso_U_13
_atom_site_aniso_U_12
Pb1 0.0173(2) 0.00690(19) 0.0195(3) 0.0003(6) 0.0003(9) 0.00046(13)
S11 0.0154(9) 0.0133(9) 0.0175(9) 0.0002(8) 0.000 0.000
S21 0.021(2) 0.004(2) 0.053(3) 0.004(2) 0.000 0.000
O11 0.0253(10) 0.0247(10) 0.0251(10) 0.0003(8) 0.0000(8) 0.0000(8)
O12 0.0380(10) 0.0380(11) 0.0385(11) 0.0003(8) -0.0001(8) -0.0003(8)
O21 0.015(5) 0.042(7) 0.049(7) -0.013(6) -0.003(5) 0.003(6)
C11 0.0234(11) 0.0234(11) 0.0237(11) 0.0001(8) 0.0000(8) 0.0000(8)
C12 0.0143(10) 0.0143(11) 0.0144(11) -0.0001(8) -0.0001(8) -0.0001(8)
C13 0.0142(10) 0.0138(10) 0.0143(11) 0.0001(8) -0.0002(8) 0.0000(8)
C21 0.0337(11) 0.0338(11) 0.0339(11) 0.0000(8) -0.0001(8) 0.0000(8)
C22 0.0286(11) 0.0285(11) 0.0288(11) 0.0000(8) 0.0000(8) -0.0001(8)
C23 0.0254(11) 0.0253(11) 0.0256(11) 0.0000(8) -0.0002(8) 0.0001(8)
loop_
_atom_type_symbol
_atom_type_description
_atom_type_scat_dispersion_real
_atom_type_scat_dispersion_imag
_atom_type_scat_source
C C 0.0033 0.0016 'International Tables Vol C Tables 4.2.6.8 and 6.1.1.4'
H H 0.0000 0.0000 'International Tables Vol C Tables 4.2.6.8 and 6.1.1.4'
O O 0.0106 0.0060 'International Tables Vol C Tables 4.2.6.8 and 6.1.1.4'
Pb Pb -3.3944 10.1111 'International Tables Vol C Tables 4.2.6.8 and 6.1.1.4'
S S 0.1246 0.1234 'International Tables Vol C Tables 4.2.6.8 and 6.1.1.4'
loop_
_geom_angle_atom_site_label_1
_geom_angle_atom_site_label_2
_geom_angle_atom_site_label_3
_geom_angle
_geom_angle_site_symmetry_1
_geom_angle_site_symmetry_3
O12 Pb1 O11 115.4(3) 4 .
O12 Pb1 O11 88.5(3) 1_565 .
O12 Pb1 O12 84.9(2) 1_565 4
O12 Pb1 O21 79.3(4) 1_565 .
O21 Pb1 O11 78.8(3) . .
O21 Pb1 O12 158.6(4) . 4
O22 Pb1 O11 159.9(4) 4_565 .
O22 Pb1 O12 83.6(4) 4_565 4
O22 Pb1 O12 86.7(4) 4_565 1_565
O22 Pb1 O21 81.1(4) 4_565 .
C12 S11 C12 86.3(8) 3_655 .
C22 S21 C22 95.4(11) 3 .
C11 O11 Pb1 132.0(10) . .
Pb1 O12 Pb1 127.7(4) 1_545 4_554
C11 O12 Pb1 95.9(9) . 4_554
C11 O12 Pb1 131.5(10) . 1_545
C21 O21 Pb1 119.4(11) . .
C21 O22 Pb1 137.4(10) . 4_564
O11 C11 O12 123.8(12) . .
O11 C11 C12 118.7(11) . .
O12 C11 C12 117.5(11) . .
C11 C12 S11 120.0(10) . .
C13 C12 S11 109.7(8) . .
C13 C12 C11 129.6(11) . .
C12 C13 H13 125(3) . .
C13 C13 C12 112.5(7) 3_655 .
C13 C13 H13 121(2) 3_655 .
O21 C21 O22 127.4(15) . .
O21 C21 C22 119.7(12) . .
O22 C21 C22 112.4(13) . .
C21 C22 S21 123.7(10) . .
C23 C22 S21 111.3(12) . .
C23 C22 C21 125.0(14) . .
C22 C23 H23 124.5 . .
C23 C23 C22 110.9(9) 3 .
C23 C23 H23 124.5 3 .
loop_
_geom_bond_atom_site_label_1
_geom_bond_atom_site_label_2
_geom_bond_distance
_geom_bond_site_symmetry_2
Pb1 O11 2.713(10) .
Pb1 O12 2.484(12) 1_565
Pb1 O12 2.648(12) 4
Pb1 O21 2.502(13) .
Pb1 O22 2.386(11) 4_565
S11 C12 1.744(13) .
S11 C12 1.744(13) 3_655
S21 C22 1.675(17) 3
S21 C22 1.675(17) .
O11 C11 1.231(13) .
O12 Pb1 2.648(12) 4_554
O12 Pb1 2.484(12) 1_545
O12 C11 1.249(14) .
O21 C21 1.231(16) .
O22 Pb1 2.386(11) 4_564
O22 C21 1.233(15) .
C11 C12 1.480(15) .
C12 C13 1.385(17) .
C13 C13 1.33(2) 3_655
C13 H13 0.93(2) .
C21 C22 1.47(2) .
C22 C23 1.447(17) .
C23 C23 1.44(3) 3
C23 H23 0.9300 .
loop_
_geom_torsion_atom_site_label_1
_geom_torsion_atom_site_label_2
_geom_torsion_atom_site_label_3
_geom_torsion_atom_site_label_4
_geom_torsion
_geom_torsion_site_symmetry_1
_geom_torsion_site_symmetry_2
_geom_torsion_site_symmetry_3
_geom_torsion_site_symmetry_4
Pb1 O11 C11 O12 72(2) . . . .
Pb1 O11 C11 C12 -106.8(13) . . . .
Pb1 O12 C11 O11 31.3(16) 4_554 . . .
Pb1 O12 C11 O11 -124.4(14) 1_545 . . .
Pb1 O12 C11 C12 54.4(18) 1_545 . . .
Pb1 O12 C11 C12 -149.9(11) 4_554 . . .
Pb1 O21 C21 O22 82(2) . . . .
Pb1 O21 C21 C22 -106.6(15) . . . .
Pb1 O22 C21 O21 -16(3) 4_564 . . .
Pb1 O22 C21 C22 172.1(11) 4_564 . . .
S11 C12 C13 C13 -20.8(9) . . . 3_655
S21 C22 C23 C23 -2.9(14) . . . 3
O11 C11 C12 S11 -2.0(18) . . . .
O11 C11 C12 C13 -171.4(13) . . . .
O12 C11 C12 S11 179.1(11) . . . .
O12 C11 C12 C13 10(2) . . . .
O21 C21 C22 S21 177.7(14) . . . .
O21 C21 C22 C23 -2(3) . . . .
O22 C21 C22 S21 -9(2) . . . .
O22 C21 C22 C23 170.9(16) . . . .
C11 C12 C13 C13 149.5(11) . . . 3_655
C12 S11 C12 C11 -144.6(8) 3_655 . . .
C12 S11 C12 C13 26.7(11) 3_655 . . .
C21 C22 C23 C23 176.8(14) . . . 3
C22 S21 C22 C21 -175.7(10) 3 . . .
C22 S21 C22 C23 4.0(19) 3 . . .
