#------------------------------------------------------------------------------
#$Date: 2019-11-08 00:14:56 +0200 (Fri, 08 Nov 2019) $
#$Revision: 224210 $
#$URL: file:///home/coder/svn-repositories/cod/cif/7/70/00/7700067.cif $
#------------------------------------------------------------------------------
#
# This file is available in the Crystallography Open Database (COD),
# http://www.crystallography.net/
#
# All data on this site have been placed in the public domain by the
# contributors.
#
data_7700067
loop_
_publ_author_name
'Sun, Xiao-Peng'
'Liu, Tao'
'Yao, Zi-Shuo'
'Tao, Jun'
_publ_section_title
;
 Spin crossover and photomagnetic behaviors in one-dimensional looped
 coordination polymers.
;
_journal_issue                   25
_journal_name_full
'Dalton transactions (Cambridge, England : 2003)'
_journal_page_first              9243
_journal_page_last               9249
_journal_paper_doi               10.1039/c9dt01520e
_journal_volume                  48
_journal_year                    2019
_chemical_formula_moiety         'C11 H11 B Fe0.5 N3 S2'
_chemical_formula_sum            'C11 H11 B Fe0.5 N3 S2'
_chemical_formula_weight         288.08
_space_group_crystal_system      orthorhombic
_space_group_IT_number           37
_space_group_name_Hall           'C 2 -2c'
_space_group_name_H-M_alt        'C c c 2'
_symmetry_space_group_name_Hall  'C 2 -2c'
_symmetry_space_group_name_H-M   'C c c 2'
_atom_sites_solution_hydrogens   geom
_audit_creation_date             2019-01-01
_audit_creation_method
;
Olex2 1.2
(compiled 2018.05.29 svn.r3508 for OlexSys, GUI svn.r5506)
;
_audit_update_record
;
2019-01-12 deposited with the CCDC.    2019-05-23 downloaded from the CCDC.
;
_cell_angle_alpha                90
_cell_angle_beta                 90
_cell_angle_gamma                90
_cell_formula_units_Z            8
_cell_length_a                   14.1818(19)
_cell_length_b                   20.150(3)
_cell_length_c                   10.725(3)
_cell_measurement_reflns_used    4465
_cell_measurement_temperature    100.03(10)
_cell_measurement_theta_max      28.1120
_cell_measurement_theta_min      4.0300
_cell_volume                     3064.8(11)
_computing_cell_refinement       'CrysAlisPro 1.171.39.29d (Rigaku OD, 2017)'
_computing_data_collection       'CrysAlisPro 1.171.39.29d (Rigaku OD, 2017)'
_computing_data_reduction        'CrysAlisPro 1.171.39.29d (Rigaku OD, 2017)'
_computing_molecular_graphics    'Olex2 (Dolomanov et al., 2009)'
_computing_publication_material  'Olex2 (Dolomanov et al., 2009)'
_computing_structure_refinement  'ShelXL (Sheldrick, 2015)'
_computing_structure_solution    'SHELXT 2014/5 (Sheldrick, 2014)'
_diffrn_ambient_environment      N~2~
_diffrn_ambient_temperature      100.03(10)
_diffrn_detector                 'CCD plate'
_diffrn_measured_fraction_theta_full 0.993
_diffrn_measured_fraction_theta_max 0.930
_diffrn_measurement_details
;
List of Runs (angles in degrees, time in seconds):

  # Type    Start    End  Width  t~exp~   \w     \q     \k     \f   Frames
#--------------------------------------------------------------------------
  1  \w    -41.00   6.00   0.50   72.00    --    0.00 -82.00   0.00   94
  2  \w    -40.00 -17.50   0.50   72.00    --    0.00 -82.00 -60.00   45
  3  \w    -36.50   9.00   0.50   72.00    --    0.00 -82.00 150.00   91
  4  \w    -88.00  14.00   0.50   72.00    --    0.00 -19.00 150.00  204
;
_diffrn_measurement_device       'four-circle diffractometer'
_diffrn_measurement_device_type  'XtaLAB AFC12 (RINC): Kappa single'
_diffrn_measurement_method       '\w scans'
_diffrn_orient_matrix_type
'CrysAlisPro convention (1999,Acta A55,543-557)'
_diffrn_orient_matrix_UB_11      0.0400603000
_diffrn_orient_matrix_UB_12      0.0192780000
_diffrn_orient_matrix_UB_13      -0.0147852000
_diffrn_orient_matrix_UB_21      -0.0290051000
_diffrn_orient_matrix_UB_22      0.0284473000
_diffrn_orient_matrix_UB_23      -0.0067022000
_diffrn_orient_matrix_UB_31      0.0070273000
_diffrn_orient_matrix_UB_32      0.0074191000
_diffrn_orient_matrix_UB_33      0.0642900000
_diffrn_radiation_monochromator  graphite
_diffrn_radiation_probe          x-ray
_diffrn_radiation_type           MoK\a
_diffrn_radiation_wavelength     0.71073
_diffrn_reflns_av_R_equivalents  0.0552
_diffrn_reflns_av_unetI/netI     0.0433
_diffrn_reflns_Laue_measured_fraction_full 0.993
_diffrn_reflns_Laue_measured_fraction_max 0.930
_diffrn_reflns_limit_h_max       18
_diffrn_reflns_limit_h_min       -19
_diffrn_reflns_limit_k_max       27
_diffrn_reflns_limit_k_min       -26
_diffrn_reflns_limit_l_max       12
_diffrn_reflns_limit_l_min       -14
_diffrn_reflns_number            12885
_diffrn_reflns_point_group_measured_fraction_full 0.951
_diffrn_reflns_point_group_measured_fraction_max 0.849
_diffrn_reflns_theta_full        25.242
_diffrn_reflns_theta_max         29.698
_diffrn_reflns_theta_min         3.513
_diffrn_source                   'fine-focus sealed X-ray tube'
_diffrn_source_type              'Enhance (Mo) X-ray Source'
_exptl_absorpt_coefficient_mu    0.785
_exptl_absorpt_correction_T_max  1.00000
_exptl_absorpt_correction_T_min  0.28007
_exptl_absorpt_correction_type   multi-scan
_exptl_absorpt_process_details
;
CrysAlisPro 1.171.39.29d (Rigaku Oxford Diffraction, 2017)
Empirical absorption correction using spherical harmonics,
 implemented in SCALE3 ABSPACK scaling algorithm.
;
_exptl_crystal_colour            red
_exptl_crystal_colour_primary    red
_exptl_crystal_density_diffrn    1.249
_exptl_crystal_description       prism
_exptl_crystal_F_000             1184
_exptl_crystal_size_max          0.4
_exptl_crystal_size_mid          0.2
_exptl_crystal_size_min          0.2
_refine_diff_density_max         1.244
_refine_diff_density_min         -0.478
_refine_diff_density_rms         0.144
_refine_ls_abs_structure_details
;
 Flack x determined using 1080 quotients [(I+)-(I-)]/[(I+)+(I-)]
 (Parsons, Flack and Wagner, Acta Cryst. B69 (2013) 249-259).
;
_refine_ls_abs_structure_Flack   0.15(2)
_refine_ls_extinction_method     none
_refine_ls_goodness_of_fit_ref   1.052
_refine_ls_hydrogen_treatment    constr
_refine_ls_matrix_type           full
_refine_ls_number_parameters     160
_refine_ls_number_reflns         3700
_refine_ls_number_restraints     1
_refine_ls_restrained_S_all      1.052
_refine_ls_R_factor_all          0.1116
_refine_ls_R_factor_gt           0.0956
_refine_ls_shift/su_max          0.000
_refine_ls_shift/su_mean         0.000
_refine_ls_structure_factor_coef Fsqd
_refine_ls_weighting_details
'w=1/[\s^2^(Fo^2^)+(0.1861P)^2^+7.4314P] where P=(Fo^2^+2Fc^2^)/3'
_refine_ls_weighting_scheme      calc
_refine_ls_wR_factor_gt          0.2609
_refine_ls_wR_factor_ref         0.2791
_reflns_Friedel_coverage         0.735
_reflns_Friedel_fraction_full    0.904
_reflns_Friedel_fraction_max     0.760
_reflns_number_gt                2919
_reflns_number_total             3700
_reflns_threshold_expression     'I > 2\s(I)'
_cod_data_source_file            c9dt01520e2.cif
_cod_data_source_block           2_100K
_cod_depositor_comments
'Adding full bibliography for 7700066--7700071.cif.'
_cod_original_cell_volume        3064.9(9)
_cod_original_formula_sum        'C11 H11 B Fe0.50 N3 S2'
_cod_database_code               7700067
_shelx_shelxl_version_number     2016/6
_shelx_space_group_comment
;
The symmetry employed for this shelxl refinement is uniquely defined
by the following loop, which should always be used as a source of
symmetry information in preference to the above space-group names.
They are only intended as comments.
;
_shelx_estimated_absorpt_t_max   0.859
_shelx_estimated_absorpt_t_min   0.744
_reflns_odcompleteness_completeness 99.44
_reflns_odcompleteness_iscentric 1
_reflns_odcompleteness_theta     26.32
_olex2_refinement_description
;
1. Fixed Uiso
 At 1.2 times of:
  All C(H) groups
 At 1.5 times of:
  All B(H,H,H) groups
2.a Aromatic/amide H refined with riding coordinates:
 C6(H6), C5(H5), C10(H10), C3(H3), C2(H2), C11(H11), C8(H8), C9(H9)
2.b Idealised Me refined as rotating group:
 B1(H1A,H1B,H1C)
;
_shelx_res_file
;
TITL 20180904y--100k@@_a.res in Ccc2
    20180904y--100k@@_sq.res
    created by SHELXL-2016/6 at 19:46:23 on 01-Jan-2019
REM Old TITL 20180904y--100k@@_a.res in Ccc2
REM SHELXT solution in Ccc2
REM R1 0.192, Rweak 0.026, Alpha 0.002, Orientation as input
REM Flack x = 0.158 ( 0.020 ) from Parsons' quotients
REM Formula found by SHELXT: C22 Fe N8 S4
CELL 0.71073 14.1818 20.1505 10.7249 90 90 90
ZERR 8 0.0019 0.0028 0.0025 0 0 0
LATT -7
SYMM -X,-Y,+Z
SYMM +X,-Y,0.5+Z
SYMM -X,+Y,0.5+Z
SFAC C H B Fe N S
UNIT 88 88 8 4 24 16

L.S. 60 0 27
PLAN  20
SIZE 0.2 0.2 0.4
BOND $H
list 4
ABIN
fmap 2 53
acta
OMIT 3 3 0
OMIT 3 7 0
OMIT 13 15 0
OMIT 4 2 0
OMIT 7 9 0
REM <olex2.extras>
REM <HklSrc "%.\\20180904y--100K@@.hkl">
REM </olex2.extras>

WGHT    0.186100    7.431400
FVAR       0.24567
FE1   4    0.250000    0.250000    0.070989    10.50000    0.04030    0.03574 =
         0.05457    0.00000    0.00000    0.00088
S2    6    0.215937    0.478004    0.627267    11.00000    0.09773    0.04704 =
         0.07434    0.00026    0.01191    0.01558
S1    6    0.106304    0.455579    0.513483    11.00000    0.07995    0.06561 =
         0.08031    0.00703    0.01732    0.03125
N2    5    0.212616    0.319418    0.203367    11.00000    0.03605    0.04113 =
         0.05921    0.00427   -0.00420   -0.00053
N1    5    0.385190    0.277338    0.071366    11.00000    0.05256    0.04802 =
         0.05516   -0.00535    0.00640    0.00508
N3    5    0.224404    0.321660    0.933933    11.00000    0.06342    0.03977 =
         0.06325   -0.00267    0.01000    0.00937
C6    1    0.128888    0.350072    0.201052    11.00000    0.04851    0.04652 =
         0.06953    0.01077   -0.00474    0.00422
AFIX  43
H6    2    0.089655    0.342588    0.133006    11.00000   -1.20000
AFIX   0
C5    1    0.097481    0.391938    0.293256    11.00000    0.03873    0.04837 =
         0.07798    0.02217   -0.00318    0.01100
AFIX  43
H5    2    0.039408    0.412974    0.285496    11.00000   -1.20000
AFIX   0
C10   1    0.173235    0.310639    0.835509    11.00000    0.04983    0.04389 =
         0.07071   -0.00461    0.00885   -0.00059
AFIX  43
H10   2    0.139742    0.271007    0.831889    11.00000   -1.20000
AFIX   0
C4    1    0.152073    0.402524    0.396547    11.00000    0.05050    0.03511 =
         0.07101    0.01126    0.00730    0.00344
C3    1    0.240063    0.370961    0.403964    11.00000    0.04949    0.05388 =
         0.06536   -0.00240   -0.00599    0.01906
AFIX  43
H3    2    0.279426    0.376592    0.472507    11.00000   -1.20000
AFIX   0
B1    3    0.580751    0.284273    0.061720    11.00000    0.01979    0.09662 =
         0.10672    0.04428    0.00362   -0.01302
AFIX 137
H1A   2    0.599322    0.284579   -0.024355    11.00000   -1.50000
H1B   2    0.604583    0.244956    0.101246    11.00000   -1.50000
H1C   2    0.605906    0.322744    0.102721    11.00000   -1.50000
AFIX   0
C7    1    0.214288    0.415205    0.744047    11.00000    0.08195    0.05392 =
         0.06953    0.00503    0.01757    0.00906
C1    1    0.464028    0.285204    0.071307    11.00000    0.04762    0.04013 =
         0.07417    0.01504    0.00189   -0.00055
C2    1    0.265277    0.331470    0.305540    11.00000    0.03994    0.04470 =
         0.06154    0.00118   -0.00329    0.01064
AFIX  43
H2    2    0.324057    0.311120    0.309545    11.00000   -1.20000
AFIX   0
C11   1    0.165129    0.354126    0.735079    11.00000    0.05632    0.04796 =
         0.06379   -0.00035    0.00508    0.01161
AFIX  43
H11   2    0.129128    0.343573    0.665365    11.00000   -1.20000
AFIX   0
C8    1    0.266392    0.428490    0.851343    11.00000    0.07667    0.05435 =
         0.07699   -0.00108    0.01010    0.00863
AFIX  43
H8    2    0.296650    0.469069    0.861634    11.00000   -1.20000
AFIX   0
C9    1    0.272066    0.379934    0.942171    11.00000    0.07361    0.04619 =
         0.06407    0.00036    0.00360   -0.00149
AFIX  43
H9    2    0.309958    0.387483    1.011508    11.00000   -1.20000
AFIX   0
HKLF 4




REM  20180904y--100k@@_a.res in Ccc2
REM R1 =  0.0956 for    2919 Fo > 4sig(Fo)  and  0.1116 for all    3700 data
REM    160 parameters refined using      1 restraints

END

WGHT      0.1861      7.4315

REM Highest difference peak  1.244,  deepest hole -0.478,  1-sigma level  0.144
Q1    1   0.2251  0.2543  0.0205  11.00000  0.05    1.07
Q2    1   0.1549  0.4636  0.5810  11.00000  0.05    0.94
Q3    1   0.1179  0.4564  0.4434  11.00000  0.05    0.60
Q4    1   0.2173  0.4203  0.7925  11.00000  0.05    0.52
Q5    1   0.2351  0.4775  0.6979  11.00000  0.05    0.51
Q6    1   0.4184  0.2800  0.1284  11.00000  0.05    0.47
Q7    1   0.1958  0.3365  0.8557  11.00000  0.05    0.44
Q8    1   0.1746  0.4753  0.6882  11.00000  0.05    0.43
Q9    1   0.2187  0.3610  0.9731  11.00000  0.05    0.43
Q10   1   0.1390  0.3802  0.2983  11.00000  0.05    0.39
Q11   1   0.1214  0.3840  0.3531  11.00000  0.05    0.38
Q12   1   0.1868  0.3244  0.2467  11.00000  0.05    0.37
Q13   1   0.5641  0.1809 -0.0053  11.00000  0.05    0.37
Q14   1   0.2418  0.3372  0.2454  11.00000  0.05    0.37
Q15   1   0.0831  0.3817  0.3179  11.00000  0.05    0.37
Q16   1   0.4208  0.4803  0.6257  11.00000  0.05    0.36
Q17   1   0.2013  0.3071  0.8374  11.00000  0.05    0.36
Q18   1   0.1196  0.3792  0.2252  11.00000  0.05    0.36
Q19   1   0.1825  0.3165  0.8964  11.00000  0.05    0.35
Q20   1   0.2371  0.3725  0.8969  11.00000  0.05    0.34
;
_shelx_res_checksum              73321
_shelx_fab_file
;
-19 -5 -1 -1.2042 -0.2032
-19 -3 -3 1.5524 2.6944
-19 -3 -2 -1.9846 2.4695
-19 -3 -1 0.0235 0.8435
-18 -8 -3 -0.4433 -0.6266
-18 -8 -2 -2.2173 -2.8812
-18 -6 -3 2.0609 1.0119
-18 -6 -2 -1.0455 -0.0335
-18 -6 -1 -1.0494 2.3819
-18 -4 -3 2.7163 3.6602
-18 -4 -2 -1.2554 3.3609
-18 -4 -1 0.1083 0.2067
-18 -2 -2 -1.5504 -1.1360
-18 -2 -1 1.8012 1.3588
-18 0 -2 -1.9252 -5.9655
-17 -11 -4 -0.7396 0.2774
-17 -11 -3 0.1076 -0.6620
-17 -11 -2 -2.4867 -1.4309
-17 -9 -5 -0.1373 0.3063
-17 -9 -4 -0.2242 0.0907
-17 -9 -3 -0.4230 -1.1344
-17 -9 -2 -4.2168 -3.4596
-17 -9 -1 2.0103 6.0968
-17 -7 -5 -0.4890 0.2937
-17 -7 -4 -0.1501 0.7129
-17 -7 -3 2.0945 -0.5992
-17 -7 -2 -2.6698 -2.7190
-17 -7 -1 -0.3262 6.6363
-17 -5 -6 0.6184 -2.6526
-17 -5 -5 1.3419 -2.6431
-17 -5 -4 0.5328 -1.5010
-17 -5 -3 2.8625 2.6767
-17 -5 -2 -1.4923 1.9072
-17 -5 -1 -0.0676 2.2818
-17 -3 -6 0.1935 -2.5648
-17 -3 -5 2.3844 -2.4822
-17 -3 -4 0.2091 -2.5761
-17 -3 -3 1.4889 3.0632
-17 -3 -2 0.2607 1.4359
-17 -3 -1 2.6627 0.8290
-17 -1 -7 -0.3517 -0.8244
-17 -1 -6 -0.4316 -2.8088
-17 -1 -5 0.9947 -0.3499
-17 -1 -4 1.2167 -0.6584
-17 -1 -3 0.3347 0.7388
-17 -1 -2 1.2084 -5.5382
-17 -1 -1 1.9782 1.0969
-16 -14 -4 -1.0138 0.4868
-16 -14 -3 4.7025 1.9313
-16 -14 -2 -1.7706 1.2877
-16 -12 -5 0.3202 -0.1491
-16 -12 -4 -1.5222 0.8891
-16 -12 -3 2.2555 -1.2594
-16 -12 -2 -1.2368 0.0291
-16 -12 -1 -0.4682 3.9421
-16 -10 -5 1.6743 -0.8191
-16 -10 -4 -0.1037 0.8673
-16 -10 -3 -0.2258 -2.2305
-16 -10 -2 -3.5717 -2.5422
-16 -10 -1 1.3841 6.4068
-16 -8 -6 2.7634 -2.7070
-16 -8 -5 -0.8949 0.5501
-16 -8 -4 -1.1683 1.7586
-16 -8 -3 1.5516 -1.8600
-16 -8 -2 -3.5462 -3.9620
-16 -8 -1 0.6506 8.3771
-16 -6 -6 2.1286 -4.4382
-16 -6 -5 -0.6844 -1.0029
-16 -6 -4 -1.4093 -0.1909
-16 -6 -3 1.8109 0.0468
-16 -6 -2 -2.2281 -0.8555
-16 -6 -1 0.1562 5.9962
-16 -4 -7 -0.0926 0.8930
-16 -4 -6 0.4467 -3.3380
-16 -4 -5 1.7133 -1.9069
-16 -4 -4 -0.7375 -2.7965
-16 -4 -3 -0.1538 1.8261
-16 -4 -2 0.1059 2.4662
-16 -4 -1 2.2444 1.1589
-16 -2 -8 -0.4138 -0.2947
-16 -2 -7 -0.2665 -0.9931
-16 -2 -6 -0.7238 -2.6353
-16 -2 -5 1.5857 0.8126
-16 -2 -4 0.4488 -1.3489
-16 -2 -3 -1.1026 0.0384
-16 -2 -2 2.9514 -1.4299
-16 -2 -1 3.4908 1.4815
-16 0 -8 0.2913 -1.3608
-16 0 -6 -1.3928 -1.9927
-16 0 -4 2.0726 -0.1475
-16 0 -2 3.1710 -5.1944
-15 -17 -3 0.4183 0.4370
-15 -15 -4 -2.6607 0.6721
-15 -15 -3 5.2905 3.8956
-15 -15 -2 -0.9266 -0.1351
-15 -15 -1 -1.8781 1.6888
-15 -13 -6 1.0286 -0.8299
-15 -13 -5 -1.5499 0.3624
-15 -13 -4 -2.4287 0.6766
-15 -13 -3 4.6489 1.1825
-15 -13 -2 -0.7402 0.6817
-15 -13 -1 -2.5229 4.1711
-15 -11 -6 0.9684 -0.1995
-15 -11 -5 3.6989 -1.2590
-15 -11 -4 0.6058 0.9885
-15 -11 -3 0.2306 -2.8141
-15 -11 -2 -1.1156 -1.0083
-15 -11 -1 -0.8033 6.9257
-15 -9 -7 -2.9852 -3.9749
-15 -9 -6 2.0481 -2.4923
-15 -9 -5 1.2343 -0.3705
-15 -9 -4 0.4919 1.8736
-15 -9 -3 1.1598 -2.0466
-15 -9 -2 -2.2130 -2.9545
-15 -9 -1 0.2859 6.5408
-15 -7 -7 -1.5955 -2.6402
-15 -7 -6 3.3682 -6.0553
-15 -7 -5 -1.9856 0.4077
-15 -7 -4 -2.8940 0.8534
-15 -7 -3 0.8463 -1.4785
-15 -7 -2 -1.3215 -2.5792
-15 -7 -1 0.9774 7.1591
-15 -5 -9 -1.3404 -0.3679
-15 -5 -8 -1.3641 0.2729
-15 -5 -7 0.7921 1.6104
-15 -5 -6 1.9289 -4.3346
-15 -5 -5 -0.3436 -0.4857
-15 -5 -4 -3.1492 -2.9499
-15 -5 -3 -2.3242 -0.3305
-15 -5 -2 -0.5601 1.4173
-15 -5 -1 1.4589 2.1565
-15 -3 -8 -1.1050 0.4072
-15 -3 -7 1.0378 0.6169
-15 -3 -6 -0.4765 -2.9078
-15 -3 -5 0.8549 2.0020
-15 -3 -4 -1.4617 -1.3020
-15 -3 -3 -4.1835 -1.2071
-15 -3 -2 2.4589 1.9065
-15 -3 -1 2.6787 0.4427
-15 -1 -8 0.2792 -0.6361
-15 -1 -7 0.4324 -0.9702
-15 -1 -6 -1.8599 -1.1580
-15 -1 -5 0.3231 2.2895
-15 -1 -4 2.2732 1.1187
-15 -1 -3 -2.3978 -1.6366
-15 -1 -2 2.3723 -0.5349
-15 -1 -1 1.8872 1.7517
-14 -18 -4 -1.9393 2.1909
-14 -18 -3 0.7929 0.0889
-14 -18 -2 3.2285 -4.3283
-14 -18 -1 1.1316 3.5306
-14 -16 -6 1.3650 -0.9555
-14 -16 -5 -1.3536 0.2222
-14 -16 -4 -5.4279 1.8961
-14 -16 -3 4.6930 3.4850
-14 -16 -2 2.4548 -3.2687
-14 -16 -1 -0.1392 4.4696
-14 -14 -7 1.3854 -0.2740
-14 -14 -6 0.6417 -0.9420
-14 -14 -5 -3.6226 0.1188
-14 -14 -4 -4.7022 0.3711
-14 -14 -3 6.5249 5.3331
-14 -14 -2 -0.1710 -0.8180
-14 -14 -1 -2.1807 3.6041
-14 -12 -8 3.2449 3.5315
-14 -12 -7 0.7576 -1.3248
-14 -12 -6 -0.2356 -0.5763
-14 -12 -5 3.0260 -0.9463
-14 -12 -4 0.4915 0.3721
-14 -12 -3 0.6505 -0.4905
-14 -12 -2 0.4331 -1.1249
-14 -12 -1 -2.0424 7.2915
-14 -10 -9 -0.4962 1.1504
-14 -10 -8 2.4002 1.8469
-14 -10 -7 -2.6707 -4.2835
-14 -10 -6 0.1964 -1.3443
-14 -10 -5 4.2588 -0.7392
-14 -10 -4 4.1279 0.5983
-14 -10 -3 0.6708 -1.6710
-14 -10 -2 -0.0792 -1.0151
-14 -10 -1 -1.7000 4.2015
-14 -8 -7 -2.9365 -5.0690
-14 -8 -6 2.6728 -6.6171
-14 -8 -5 -0.9754 0.8039
-14 -8 -4 -0.2510 1.1960
-14 -8 -3 1.6183 -0.4110
-14 -8 -2 1.1309 -1.4347
-14 -8 -1 0.5799 3.7171
-14 -6 -9 -2.6100 -0.4641
-14 -6 -8 -1.4150 -0.4034
-14 -6 -7 0.3613 0.1728
-14 -6 -6 3.6478 -5.6991
-14 -6 -5 -1.2868 1.0114
-14 -6 -4 -4.3769 -2.9555
-14 -6 -3 -2.7579 -1.2128
-14 -6 -2 0.9452 0.4129
-14 -6 -1 1.6633 2.6668
-14 -4 -9 -0.9194 -0.5429
-14 -4 -8 -1.9646 -0.4996
-14 -4 -7 2.2199 2.4079
-14 -4 -6 1.1103 -2.9387
-14 -4 -5 -0.1377 2.4197
-14 -4 -4 -4.1522 -2.5413
-14 -4 -3 -5.6132 -1.5734
-14 -4 -2 1.6744 2.3970
-14 -4 -1 0.3725 -2.2180
-14 -2 -9 0.6378 0.1982
-14 -2 -8 0.1439 0.6143
-14 -2 -7 1.7672 -0.5057
-14 -2 -6 -1.4683 -1.8716
-14 -2 -5 0.0126 4.0095
-14 -2 -4 0.1528 2.5045
-14 -2 -3 -6.2822 -3.2485
-14 -2 -2 1.1286 2.6601
-14 -2 -1 1.2299 1.9336
-14 0 -8 0.9363 -0.0569
-14 0 -6 -2.1848 0.3562
-14 0 -4 4.1659 3.2335
-14 0 -2 -1.8243 3.3242
-13 -19 -4 1.2018 2.4780
-13 -19 -3 3.1307 1.3436
-13 -19 -2 -0.6564 -5.2713
-13 -19 -1 0.2168 0.2596
-13 -17 -5 1.6874 -1.2982
-13 -17 -4 -4.5740 3.8137
-13 -17 -3 4.5147 1.6880
-13 -17 -2 4.0351 -6.5833
-13 -17 -1 1.5902 6.8193
-13 -15 -7 -0.6512 -0.1077
-13 -15 -6 2.3241 -2.0066
-13 -15 -5 -2.6813 -0.9499
-13 -15 -4 -7.2194 1.1009
-13 -15 -3 7.7129 6.4406
-13 -15 -2 1.7721 -3.7034
-13 -15 -1 0.4687 4.4459
-13 -13 -8 3.9899 3.9804
-13 -13 -7 1.1333 -0.9547
-13 -13 -6 -0.7645 -1.3757
-13 -13 -5 -0.2478 -1.1146
-13 -13 -4 -1.6073 -0.1437
-13 -13 -3 1.8517 4.1832
-13 -13 -2 0.3740 -3.7989
-13 -13 -1 0.0583 6.0013
-13 -11 -9 0.2318 1.9029
-13 -11 -8 3.1161 5.1227
-13 -11 -7 -1.0932 -3.0681
-13 -11 -6 -1.4926 0.2200
-13 -11 -5 4.8879 -0.2577
-13 -11 -4 6.1637 -1.2882
-13 -11 -3 -1.0208 -0.6048
-13 -11 -2 0.6778 -1.6415
-13 -11 -1 -1.9691 3.5813
-13 -9 -8 1.6086 3.5325
-13 -9 -7 -2.5540 -5.8066
-13 -9 -6 0.8497 -4.7263
-13 -9 -5 0.6967 1.3872
-13 -9 -4 5.3162 -0.2605
-13 -9 -3 3.6059 1.2161
-13 -9 -2 2.4762 1.6192
-13 -9 -1 -1.9846 -2.0393
-13 -7 -9 -2.7917 -0.9327
-13 -7 -8 -0.5422 0.9820
-13 -7 -7 -0.4417 -1.9579
-13 -7 -6 3.7327 -7.3351
-13 -7 -5 -0.4078 1.8034
-13 -7 -4 -1.3855 -1.8118
-13 -7 -3 -0.0267 0.2132
-13 -7 -2 4.0502 2.0799
-13 -7 -1 1.6797 1.3283
-13 -5 -10 -0.7536 -0.8421
-13 -5 -9 -2.3663 -0.7104
-13 -5 -8 -2.7273 -2.0958
-13 -5 -7 1.8791 2.6207
-13 -5 -6 3.1891 -2.6620
-13 -5 -5 0.7694 2.5642
-13 -5 -4 -4.6443 -4.1654
-13 -5 -3 -3.2912 -0.9298
-13 -5 -2 2.7254 2.1084
-13 -5 -1 -0.5278 -3.4425
-13 -3 -9 0.4718 -0.1732
-13 -3 -8 -0.4098 0.3132
-13 -3 -7 2.3855 0.9070
-13 -3 -6 0.0695 -2.6714
-13 -3 -5 0.1892 3.4263
-13 -3 -4 -3.2278 2.0319
-13 -3 -3 -6.1103 -2.3580
-13 -3 -2 1.6178 1.8490
-13 -3 -1 -1.6599 -1.9958
-13 -1 -9 0.7167 0.2327
-13 -1 -8 1.1323 0.9654
-13 -1 -7 1.0973 -0.6385
-13 -1 -6 -1.5482 -0.2811
-13 -1 -5 0.3335 1.7286
-13 -1 -4 2.9446 4.4828
-13 -1 -3 -5.0195 -2.4367
-13 -1 -2 -4.0518 4.2544
-13 -1 -1 0.3554 3.1992
-12 -20 -3 5.5295 2.6122
-12 -20 -2 -6.9378 -5.2548
-12 -20 -1 -2.2082 -4.0812
-12 -18 -5 1.6585 -2.1215
-12 -18 -4 1.7222 4.8292
-12 -18 -3 5.6879 1.9069
-12 -18 -2 -0.4605 -8.2718
-12 -18 -1 0.9075 4.8628
-12 -16 -6 5.1093 -3.8046
-12 -16 -5 1.0659 -1.8922
-12 -16 -4 -5.1450 2.7887
-12 -16 -3 7.6655 3.5956
-12 -16 -2 2.6383 -5.8377
-12 -16 -1 2.7679 6.9939
-12 -14 -9 2.0778 0.7558
-12 -14 -8 3.9943 0.9284
-12 -14 -7 0.3415 -1.4363
-12 -14 -6 1.0571 -3.9831
-12 -14 -5 -2.4337 -1.1503
-12 -14 -4 -4.0564 0.2101
-12 -14 -3 4.5624 6.3373
-12 -14 -2 -0.1581 -6.3520
-12 -14 -1 4.0358 4.3460
-12 -12 -9 1.6191 1.8731
-12 -12 -8 3.5226 5.4623
-12 -12 -7 0.3128 -1.5673
-12 -12 -6 -2.0399 0.1207
-12 -12 -5 2.1715 -0.0836
-12 -12 -4 4.5128 -1.8488
-12 -12 -3 -2.6978 1.2142
-12 -12 -2 -0.4664 -5.9624
-12 -12 -1 2.2881 3.4767
-12 -10 -10 3.9082 0.9215
-12 -10 -9 1.1874 1.1606
-12 -10 -8 1.1659 5.1722
-12 -10 -7 -0.9379 -4.8005
-12 -10 -6 -0.3129 -0.4654
-12 -10 -5 0.8477 2.5469
-12 -10 -4 8.6598 -2.9522
-12 -10 -3 3.6423 0.6409
-12 -10 -2 1.4209 1.8774
-12 -10 -1 -3.1532 -5.8625
-12 -8 -10 2.5245 -0.4911
-12 -8 -9 -1.5477 -1.1126
-12 -8 -8 0.2851 3.8581
-12 -8 -7 0.1565 -3.2863
-12 -8 -6 2.8047 -7.0051
-12 -8 -5 -0.2016 2.3822
-12 -8 -4 3.7977 -1.3540
-12 -8 -3 5.2340 1.8205
-12 -8 -2 5.1840 6.1365
-12 -8 -1 -0.6911 -3.3605
-12 -6 -10 -0.3057 -1.1647
-12 -6 -9 -3.1491 -1.2980
-12 -6 -8 -2.3321 -1.3526
-12 -6 -7 0.9954 2.0883
-12 -6 -6 3.8335 -3.5103
-12 -6 -5 3.6532 2.1517
-12 -6 -4 -1.4239 -3.3781
-12 -6 -3 1.1106 -0.1188
-12 -6 -2 5.2240 4.0037
-12 -6 -1 0.6829 -0.8141
-12 -4 -11 -1.0112 -1.2323
-12 -4 -10 -2.6789 -1.5225
-12 -4 -9 -0.4290 -0.3314
-12 -4 -8 -1.5958 -1.4656
-12 -4 -7 1.3566 1.7373
-12 -4 -6 1.8199 -1.5835
-12 -4 -5 2.0990 2.3605
-12 -4 -4 -3.8572 0.1334
-12 -4 -3 0.1992 -0.1933
-12 -4 -2 3.3243 0.2354
-12 -4 -1 -3.4267 -6.2964
-12 -2 -10 -2.8122 -1.9629
-12 -2 -9 1.2192 0.1582
-12 -2 -8 0.9800 1.4048
-12 -2 -7 1.1552 -0.3440
-12 -2 -6 -0.2752 -2.3977
-12 -2 -5 1.5106 0.2759
-12 -2 -4 -0.8348 4.7777
-12 -2 -3 -6.1459 -2.3365
-12 -2 -2 -1.6541 0.5887
-12 -2 -1 -0.7415 2.7922
-12 0 -8 0.6295 0.2840
-12 0 -6 -0.7274 0.5478
-12 0 -4 3.3564 3.4630
-12 0 -2 -6.8363 3.1293
-11 -23 -2 -4.8272 -1.6804
-11 -21 -3 6.3761 2.1351
-11 -21 -2 -10.0386 -5.3294
-11 -21 -1 -4.1118 -4.6258
-11 -19 -5 -1.4032 -1.6139
-11 -19 -4 7.0120 3.8964
-11 -19 -3 7.5315 3.9937
-11 -19 -2 -7.6599 -8.0493
-11 -19 -1 -2.4254 -0.2259
-11 -17 -6 5.2573 -3.2729
-11 -17 -5 3.3810 -2.4576
-11 -17 -4 3.0268 3.6534
-11 -17 -3 6.1361 1.6570
-11 -17 -2 -0.8405 -5.8876
-11 -17 -1 1.9310 7.2260
-11 -15 -9 1.2428 0.8507
-11 -15 -8 3.1861 -2.3392
-11 -15 -7 -0.4078 -2.9405
-11 -15 -6 3.9451 -7.6139
-11 -15 -5 -0.7933 0.1528
-11 -15 -4 -2.6730 1.0490
-11 -15 -3 6.3439 3.5394
-11 -15 -2 -1.2614 -5.6635
-11 -15 -1 5.8418 4.6825
-11 -13 -9 1.7629 1.1139
-11 -13 -8 3.4494 2.2061
-11 -13 -7 1.5263 -1.5952
-11 -13 -6 -0.8131 -3.7695
-11 -13 -5 -1.1583 0.7049
-11 -13 -4 0.8871 -0.6045
-11 -13 -3 -1.5029 1.8377
-11 -13 -2 -2.7730 -9.1945
-11 -13 -1 7.9034 2.5498
-11 -11 -10 2.5652 1.0358
-11 -11 -9 2.5402 1.5008
-11 -11 -8 0.5997 3.3602
-11 -11 -7 0.5451 -3.2478
-11 -11 -6 -0.6650 2.4535
-11 -11 -5 -0.4081 3.1452
-11 -11 -4 6.8948 -3.6357
-11 -11 -3 0.5464 -2.0599
-11 -11 -2 -0.8286 -3.0609
-11 -11 -1 0.9271 -5.7116
-11 -9 -10 4.2875 1.4110
-11 -9 -9 0.5933 -0.1393
-11 -9 -8 -0.1731 4.1853
-11 -9 -7 1.5991 -4.3111
-11 -9 -6 2.5401 -2.7144
-11 -9 -5 -2.1067 3.5307
-11 -9 -4 6.1505 -2.8847
-11 -9 -3 9.2975 0.1269
-11 -9 -2 2.9902 7.3682
-11 -9 -1 -3.5985 -9.8258
-11 -7 -11 -0.2430 -0.5710
-11 -7 -10 0.9349 -0.8829
-11 -7 -9 -2.5942 -1.9372
-11 -7 -8 -0.8456 1.5597
-11 -7 -7 1.3360 1.4289
-11 -7 -6 3.4638 -4.7798
-11 -7 -5 4.9938 0.9942
-11 -7 -4 2.1347 -1.5241
-11 -7 -3 5.6804 -0.0945
-11 -7 -2 5.9434 7.8271
-11 -7 -1 0.9712 1.0408
-11 -5 -12 -1.8061 1.5098
-11 -5 -11 -1.2054 -1.7248
-11 -5 -10 -1.9025 -1.1072
-11 -5 -9 -1.3430 -0.7504
-11 -5 -8 -2.1332 -2.2263
-11 -5 -7 -0.1340 2.4287
-11 -5 -6 2.0603 -0.0083
-11 -5 -5 6.0703 1.3620
-11 -5 -4 -0.9065 -0.3506
-11 -5 -3 6.5518 0.4465
-11 -5 -2 5.0518 1.2443
-11 -5 -1 -1.5020 -3.7783
-11 -3 -12 -1.5784 1.4986
-11 -3 -11 -0.0829 -0.4301
-11 -3 -10 -4.0891 -2.1056
-11 -3 -9 1.0484 0.3412
-11 -3 -8 0.2781 0.9838
-11 -3 -7 -0.1391 -0.1985
-11 -3 -6 0.6078 -2.5146
-11 -3 -5 2.9650 -1.2404
-11 -3 -4 -2.4054 4.1279
-11 -3 -3 0.6057 -0.0908
-11 -3 -2 1.8336 -2.8826
-11 -3 -1 -1.5929 -2.4472
-11 -1 -10 -0.5529 -1.6121
-11 -1 -9 0.7333 0.1196
-11 -1 -8 -0.1452 -0.6290
-11 -1 -7 -0.0569 -0.1279
-11 -1 -6 0.2578 -0.7582
-11 -1 -5 2.1848 -2.3116
-11 -1 -4 0.8556 2.0805
-11 -1 -3 -4.8581 -1.4686
-11 -1 -2 -4.1408 -0.7507
-11 -1 -1 1.4709 4.4149
-10 -22 -3 6.6996 0.9485
-10 -22 -2 -8.0726 -5.3645
-10 -22 -1 -3.6408 -1.1635
-10 -20 -4 5.1782 1.8340
-10 -20 -3 8.9668 4.2138
-10 -20 -2 -9.7674 -7.0089
-10 -20 -1 -5.4961 -2.3345
-10 -18 -6 2.1147 1.0042
-10 -18 -5 1.6619 -3.0458
-10 -18 -4 10.2710 2.6163
-10 -18 -3 4.5522 2.9824
-10 -18 -2 -5.7186 -4.3491
-10 -18 -1 -1.9297 2.9219
-10 -16 -9 0.2411 0.8325
-10 -16 -8 2.1003 -2.9829
-10 -16 -7 -0.7155 -3.8072
-10 -16 -6 4.1105 -7.9630
-10 -16 -5 2.4671 1.2342
-10 -16 -4 3.6960 1.0861
-10 -16 -3 4.1188 0.1399
-10 -16 -2 -3.9674 -2.3114
-10 -16 -1 3.4644 5.0397
-10 -14 -9 0.2137 0.6222
-10 -14 -8 2.3018 -1.3737
-10 -14 -7 2.7903 -3.1446
-10 -14 -6 1.1605 -9.5985
-10 -14 -5 -1.4826 3.4831
-10 -14 -4 -1.0038 0.7658
-10 -14 -3 1.4120 -0.2363
-10 -14 -2 -5.5624 -6.6455
-10 -14 -1 8.7168 1.5656
-10 -12 -10 -0.2267 -0.6399
-10 -12 -9 1.9711 0.3247
-10 -12 -8 0.3445 -0.6058
-10 -12 -7 2.1136 -2.4704
-10 -12 -6 -0.6615 -0.0163
-10 -12 -5 -1.3136 3.4647
-10 -12 -4 1.5622 -1.2288
-10 -12 -3 -2.0547 -4.5449
-10 -12 -2 -3.2392 -7.3263
-10 -12 -1 6.8796 -3.5458
-10 -10 -11 -3.0535 0.8153
-10 -10 -10 3.2774 2.7115
-10 -10 -9 2.1940 0.7488
-10 -10 -8 -1.3042 0.0825
-10 -10 -7 2.2291 -5.4790
-10 -10 -6 2.2120 2.5775
-10 -10 -5 -3.6741 4.5596
-10 -10 -4 3.7192 -3.2387
-10 -10 -3 8.2360 -4.9084
-10 -10 -2 0.1302 2.1541
-10 -10 -1 -2.6492 -12.7903
-10 -8 -11 -0.6432 0.4423
-10 -8 -10 1.6628 0.4957
-10 -8 -9 -1.1259 -1.2235
-10 -8 -8 -0.0735 2.2853
-10 -8 -7 2.4658 -1.0218
-10 -8 -6 3.6519 -3.3645
-10 -8 -5 2.3318 0.6148
-10 -8 -4 2.2943 -1.4620
-10 -8 -3 9.3970 -1.9708
-10 -8 -2 2.8401 8.3150
-10 -8 -1 -1.3597 -3.4244
-10 -6 -12 -1.2397 2.0334
-10 -6 -11 -0.8276 -1.0479
-10 -6 -10 -0.7118 -0.5749
-10 -6 -9 -1.5693 -1.5906
-10 -6 -8 -0.9416 -1.0140
-10 -6 -7 -0.4936 3.3329
-10 -6 -6 1.4122 -0.1976
-10 -6 -5 9.3288 -0.7955
-10 -6 -4 1.0751 0.4216
-10 -6 -3 7.3761 -0.5131
-10 -6 -2 4.8550 3.8502
-10 -6 -1 1.8356 3.2358
-10 -4 -12 -3.2321 2.2208
-10 -4 -11 -0.5395 -0.9635
-10 -4 -10 -3.5483 -1.1809
-10 -4 -9 0.4477 0.5599
-10 -4 -8 -0.4185 0.1034
-10 -4 -7 -1.4531 0.0488
-10 -4 -6 -0.1499 0.2435
-10 -4 -5 4.9582 -0.8691
-10 -4 -4 -0.4443 3.3753
-10 -4 -3 8.2574 1.2913
-10 -4 -2 3.6630 -2.4945
-10 -4 -1 -0.1836 -4.5083
-10 -2 -12 -1.1925 1.0811
-10 -2 -11 0.7798 0.3017
-10 -2 -10 -1.9443 -1.8123
-10 -2 -9 0.8535 0.6135
-10 -2 -8 -0.1534 -0.0839
-10 -2 -7 -0.9965 -0.3633
-10 -2 -6 0.4002 -2.0221
-10 -2 -5 3.9500 -4.7085
-10 -2 -4 -0.5791 1.7148
-10 -2 -3 -3.5401 -0.6429
-10 -2 -2 -0.3273 -2.7870
-10 -2 -1 3.4876 2.7960
-10 0 -12 -0.5712 0.5225
-10 0 -10 2.5106 -0.7574
-10 0 -8 -1.9413 -4.6452
-10 0 -6 0.8760 0.1497
-10 0 -4 0.7678 -2.4098
-10 0 -2 -2.9116 -0.9895
-9 -23 -2 -2.9505 -3.9126
-9 -23 -1 -1.0737 2.2753
-9 -21 -4 0.0978 -0.2683
-9 -21 -3 10.0394 1.7918
-9 -21 -2 -4.6425 -5.0414
-9 -21 -1 -5.2800 0.7765
-9 -19 -5 -1.4131 -3.6263
-9 -19 -4 9.5276 1.0922
-9 -19 -3 4.6132 3.3606
-9 -19 -2 -4.5872 -2.2181
-9 -19 -1 -5.3793 -1.6077
-9 -17 -9 0.7965 0.5326
-9 -17 -8 1.3589 -1.5834
-9 -17 -7 -1.2303 -2.4554
-9 -17 -6 0.7842 -2.8227
-9 -17 -5 3.0441 -0.0140
-9 -17 -4 9.4027 -0.0349
-9 -17 -3 -0.4778 0.0536
-9 -17 -2 -6.0221 0.8241
-9 -17 -1 -0.9448 1.4702
-9 -15 -10 0.9180 -1.4711
-9 -15 -9 -0.4065 1.0004
-9 -15 -8 0.7288 -2.4769
-9 -15 -7 2.9771 -3.5529
-9 -15 -6 1.1724 -11.5191
-9 -15 -5 1.0590 5.8344
-9 -15 -4 0.5317 0.8799
-9 -15 -3 1.3104 -2.7109
-9 -15 -2 -8.3781 -1.0549
-9 -15 -1 3.5443 0.2354
-9 -13 -10 -0.6381 -2.2576
-9 -13 -9 -0.0783 -0.8800
-9 -13 -8 -0.5000 -3.3355
-9 -13 -7 3.8677 -2.3714
-9 -13 -6 -0.3527 -6.2713
-9 -13 -5 -0.3864 4.7424
-9 -13 -4 -3.9004 1.3211
-9 -13 -3 -1.2819 -5.1990
-9 -13 -2 -5.9608 -4.4709
-9 -13 -1 6.8201 -2.7315
-9 -11 -11 -4.4052 1.2749
-9 -11 -10 0.5201 1.7975
-9 -11 -9 1.9469 -0.2100
-9 -11 -8 -1.9611 -4.9671
-9 -11 -7 2.1711 -5.9522
-9 -11 -6 0.7670 3.3683
-9 -11 -5 -2.3309 4.2551
-9 -11 -4 -1.8953 -0.4667
-9 -11 -3 3.6077 -8.4350
-9 -11 -2 -1.1526 -3.3025
-9 -11 -1 0.9606 -10.1790
-9 -9 -12 -0.1700 -0.3770
-9 -9 -11 -2.0620 0.4789
-9 -9 -10 0.8278 1.8188
-9 -9 -9 0.0000 0.2581
-9 -9 -8 -0.7184 -1.4102
-9 -9 -7 2.4123 -5.5592
-9 -9 -6 3.1969 0.6089
-9 -9 -5 -1.0225 1.8136
-9 -9 -4 -0.2367 -1.1837
-9 -9 -3 9.9321 -5.4445
-9 -9 -2 -1.2229 1.5728
-9 -9 -1 -3.4683 -10.0377
-9 -7 -12 -0.0487 2.1132
-9 -7 -11 -0.3441 -0.2840
-9 -7 -10 -0.5969 -0.1483
-9 -7 -9 -1.2343 -1.4790
-9 -7 -8 0.4563 -0.2038
-9 -7 -7 0.0301 1.9640
-9 -7 -6 1.7896 -1.0791
-9 -7 -5 8.2148 -2.7352
-9 -7 -4 -0.4965 0.0488
-9 -7 -3 4.8383 -1.0911
-9 -7 -2 0.3846 2.7071
-9 -7 -1 2.2267 4.0355
-9 -5 -12 -3.6522 2.9311
-9 -5 -11 -0.5659 -0.8978
-9 -5 -10 -1.8592 0.1561
-9 -5 -9 -0.0182 -0.0367
-9 -5 -8 -0.0204 -0.8224
-9 -5 -7 -1.7988 1.4765
-9 -5 -6 -1.4243 2.3771
-9 -5 -5 7.2284 -0.9988
-9 -5 -4 0.2727 2.6097
-9 -5 -3 7.3166 1.3769
-9 -5 -2 3.4508 -0.4112
-9 -5 -1 2.9298 1.1041
-9 -3 -13 -0.3323 -1.1208
-9 -3 -12 -2.4954 1.4138
-9 -3 -11 0.4859 -0.2026
-9 -3 -10 -2.8794 -1.4352
-9 -3 -9 0.3221 1.4764
-9 -3 -8 0.2057 1.0510
-9 -3 -7 -1.3163 -0.9680
-9 -3 -6 -1.0517 -0.2412
-9 -3 -5 3.8585 -3.1577
-9 -3 -4 0.8005 1.6030
-9 -3 -3 1.9183 1.1783
-9 -3 -2 1.4616 -0.7763
-9 -3 -1 4.5469 -1.7769
-9 -1 -12 -0.1721 0.2510
-9 -1 -11 0.5010 0.4119
-9 -1 -10 2.8282 -0.6294
-9 -1 -9 0.1758 0.4816
-9 -1 -8 -1.7213 -5.6081
-9 -1 -7 -0.7523 0.1649
-9 -1 -6 0.6478 -0.5515
-9 -1 -5 3.1047 -3.7815
-9 -1 -4 0.8108 -4.6909
-9 -1 -3 -4.4386 -0.2554
-9 -1 -2 -0.6826 1.2417
-9 -1 -1 4.4369 2.4683
-8 -24 -2 3.0157 -1.2246
-8 -24 -1 1.8546 3.6156
-8 -22 -4 -0.5961 -2.0208
-8 -22 -3 10.9219 0.0958
-8 -22 -2 2.7691 -1.0088
-8 -22 -1 -1.8977 4.9038
-8 -20 -5 -2.0821 -3.9451
-8 -20 -4 4.1713 0.4015
-8 -20 -3 6.2759 0.1033
-8 -20 -2 3.8989 1.1337
-8 -20 -1 -5.2170 -1.9630
-8 -18 -9 1.7355 0.5744
-8 -18 -8 1.1095 0.3627
-8 -18 -7 -1.7171 0.5053
-8 -18 -6 -2.5740 3.0510
-8 -18 -5 0.9648 -2.2886
-8 -18 -4 8.4464 -0.7823
-8 -18 -3 -2.9530 0.1731
-8 -18 -2 -2.0120 2.8827
-8 -18 -1 -3.3415 -4.4713
-8 -16 -10 1.1797 -0.0091
-8 -16 -9 1.7989 2.0825
-8 -16 -8 0.1900 -1.0578
-8 -16 -7 1.5678 -0.9730
-8 -16 -6 -1.5346 -6.4551
-8 -16 -5 2.4270 4.5539
-8 -16 -4 2.7473 0.0715
-8 -16 -3 -2.6106 -2.8508
-8 -16 -2 -9.4238 1.6919
-8 -16 -1 -2.2958 -3.6662
-8 -14 -10 1.3855 -1.9549
-8 -14 -9 -0.4845 -0.1023
-8 -14 -8 -1.7349 -3.3313
-8 -14 -7 4.1987 -0.9190
-8 -14 -6 -0.6482 -9.6676
-8 -14 -5 1.8142 5.7507
-8 -14 -4 -6.6064 2.0014
-8 -14 -3 0.2590 -4.1855
-8 -14 -2 -8.9311 1.3467
-8 -14 -1 -0.8307 -5.1111
-8 -12 -11 -3.1283 1.9100
-8 -12 -10 -0.3671 -0.1160
-8 -12 -9 0.6934 -1.7742
-8 -12 -8 -2.5408 -6.7320
-8 -12 -7 2.2289 -4.6425
-8 -12 -6 -0.3325 -0.7379
-8 -12 -5 0.8908 2.5420
-8 -12 -4 -8.2107 1.9803
-8 -12 -3 0.9706 -6.3830
-8 -12 -2 -1.9813 -0.7497
-8 -12 -1 0.0826 -7.0516
-8 -10 -12 -0.7320 -1.2456
-8 -10 -11 -3.1799 0.9426
-8 -10 -10 -0.7759 1.7395
-8 -10 -9 0.0659 0.2445
-8 -10 -8 -1.5171 -5.8645
-8 -10 -7 0.8120 -9.0149
-8 -10 -6 0.7513 2.7343
-8 -10 -5 -0.5856 2.2685
-8 -10 -4 -3.4166 1.5903
-8 -10 -3 6.6478 -6.7809
-8 -10 -2 -2.0414 -5.9008
-8 -10 -1 -3.5109 -10.6424
-8 -8 -12 0.1475 1.4353
-8 -8 -11 -0.2594 -0.3879
-8 -8 -10 -1.3764 -0.2237
-8 -8 -9 -1.1998 -0.0432
-8 -8 -8 0.3025 -1.6778
-8 -8 -7 -0.4257 -2.9622
-8 -8 -6 1.9360 -0.7582
-8 -8 -5 4.4487 -1.9086
-8 -8 -4 -2.0998 -0.0540
-8 -8 -3 2.8395 -0.5686
-8 -8 -2 -6.2711 -5.5807
-8 -8 -1 -0.3997 -2.6436
-8 -6 -12 -2.2808 3.3893
-8 -6 -11 -0.0836 -0.2986
-8 -6 -10 -1.0225 0.7364
-8 -6 -9 -0.0812 -0.6974
-8 -6 -8 0.7076 -1.6106
-8 -6 -7 -1.6510 2.1933
-8 -6 -6 -0.6490 1.4301
-8 -6 -5 7.1365 -2.3758
-8 -6 -4 -2.4098 0.9257
-8 -6 -3 -0.5934 3.1405
-8 -6 -2 -0.8270 -1.8908
-8 -6 -1 4.2855 5.6427
-8 -4 -13 1.3392 -1.6987
-8 -4 -12 -3.5986 1.9866
-8 -4 -11 0.3852 -0.5729
-8 -4 -10 -2.1812 -0.0625
-8 -4 -9 -0.4743 1.3129
-8 -4 -8 0.5599 0.5447
-8 -4 -7 -0.6102 -0.2517
-8 -4 -6 -2.6959 2.6235
-8 -4 -5 3.2145 -0.0083
-8 -4 -4 0.9269 1.1880
-8 -4 -3 2.1145 2.4233
-8 -4 -2 2.4742 2.0397
-8 -4 -1 4.6690 0.3175
-8 -2 -13 -1.3384 -0.6459
-8 -2 -12 -0.4297 -0.0198
-8 -2 -11 0.2705 0.2029
-8 -2 -10 0.7218 -1.3514
-8 -2 -9 -0.3213 1.4631
-8 -2 -8 -0.2590 -2.6892
-8 -2 -7 -0.6164 -0.2442
-8 -2 -6 -0.8536 0.0116
-8 -2 -5 3.6814 -3.3984
-8 -2 -4 2.3689 -4.8687
-8 -2 -3 -3.8936 1.5002
-8 -2 -2 0.3827 4.9344
-8 -2 -1 6.5879 -0.2008
-8 0 -12 0.7803 -0.6533
-8 0 -10 5.4368 -0.0265
-8 0 -8 -1.2713 -9.0733
-8 0 -6 0.3875 -0.6112
-8 0 -4 1.5334 -9.1379
-8 0 -2 0.4388 5.2350
-7 -25 -2 6.9955 0.5560
-7 -25 -1 3.5767 3.5119
-7 -23 -4 3.0176 -2.3659
-7 -23 -3 10.0713 0.4341
-7 -23 -2 7.7626 3.5610
-7 -23 -1 2.2753 6.9678
-7 -21 -5 -0.6213 -3.8865
-7 -21 -4 2.5658 -0.2586
-7 -21 -3 7.9008 -2.7938
-7 -21 -2 12.1609 6.6988
-7 -21 -1 -1.8029 0.3222
-7 -19 -9 1.0605 1.2457
-7 -19 -8 1.2989 2.3576
-7 -19 -7 -1.1412 2.9491
-7 -19 -6 -3.5074 3.3626
-7 -19 -5 0.1819 -2.9677
-7 -19 -4 3.2702 -0.1620
-7 -19 -3 -1.9360 -2.9767
-7 -19 -2 8.5106 5.8598
-7 -19 -1 -1.9909 -7.3427
-7 -17 -10 0.1692 0.5213
-7 -17 -9 4.6164 3.5464
-7 -17 -8 0.9074 1.7638
-7 -17 -7 0.2247 2.6801
-7 -17 -6 -4.3548 1.1162
-7 -17 -5 0.9867 1.2534
-7 -17 -4 1.6797 -0.5233
-7 -17 -3 -6.1345 -2.4185
-7 -17 -2 -5.1320 1.4079
-7 -17 -1 -3.3681 -8.7489
-7 -15 -10 2.1326 -0.5639
-7 -15 -9 2.3827 2.6560
-7 -15 -8 -1.6113 -1.0092
-7 -15 -7 2.6160 2.7289
-7 -15 -6 -2.4738 -6.2305
-7 -15 -5 2.5030 4.4469
-7 -15 -4 -6.1571 1.7882
-7 -15 -3 -0.7232 -2.5227
-7 -15 -2 -10.7056 1.5150
-7 -15 -1 -8.7030 -10.1767
-7 -13 -12 1.5643 -0.0020
-7 -13 -11 -0.1522 1.0549
-7 -13 -10 1.2022 -0.9133
-7 -13 -9 0.9103 -1.0927
-7 -13 -8 -3.2516 -4.9596
-7 -13 -7 1.7235 -1.0072
-7 -13 -6 -0.1846 -4.1976
-7 -13 -5 3.1631 0.2733
-7 -13 -4 -11.9706 1.7004
-7 -13 -3 1.8398 -0.9556
-7 -13 -2 -4.2133 5.3527
-7 -13 -1 -7.9819 -9.2816
-7 -11 -12 -0.3124 -1.6586
-7 -11 -11 -2.8281 1.9591
-7 -11 -10 -1.2423 0.6511
-7 -11 -9 0.0532 -0.9727
-7 -11 -8 -1.8964 -6.5904
-7 -11 -7 -0.7348 -8.4791
-7 -11 -6 -0.9225 0.9592
-7 -11 -5 2.1668 -0.5391
-7 -11 -4 -7.0308 3.2967
-7 -11 -3 3.7869 -2.4723
-7 -11 -2 -0.2863 -4.0687
-7 -11 -1 -4.9812 -6.8414
-7 -9 -12 -0.7272 0.0925
-7 -9 -11 -0.4135 -0.2878
-7 -9 -10 -1.9886 -0.7977
-7 -9 -9 -1.8072 0.7229
-7 -9 -8 -0.4363 -3.4973
-7 -9 -7 -2.5695 -7.6986
-7 -9 -6 -0.2392 -0.4329
-7 -9 -5 3.2059 -0.0871
-7 -9 -4 -1.0929 2.4991
-7 -9 -3 1.9771 0.8371
-7 -9 -2 -8.6644 -14.4904
-7 -9 -1 -2.6141 -5.6495
-7 -7 -12 -0.9007 3.1511
-7 -7 -11 0.3348 -0.1165
-7 -7 -10 -1.0413 -0.2277
-7 -7 -9 -0.1742 -0.0895
-7 -7 -8 0.1190 -2.0298
-7 -7 -7 -2.5547 -0.2130
-7 -7 -6 1.2155 -1.0188
-7 -7 -5 4.4984 -2.4165
-7 -7 -4 -3.3737 -0.2768
-7 -7 -3 -6.3687 7.4041
-7 -7 -2 -8.7907 -9.2599
-7 -7 -1 2.3914 2.2240
-7 -5 -13 4.1422 -3.1811
-7 -5 -12 -3.1973 2.6439
-7 -5 -11 0.7754 0.0865
-7 -5 -10 -1.0423 1.4198
-7 -5 -9 -0.7527 0.0511
-7 -5 -8 0.5213 -1.2512
-7 -5 -7 0.0890 1.4194
-7 -5 -6 -1.6015 2.2211
-7 -5 -5 2.0859 1.0338
-7 -5 -4 -2.3604 0.4189
-7 -5 -3 -5.4392 4.5579
-7 -5 -2 1.3789 1.3092
-7 -5 -1 4.0141 7.0319
-7 -3 -13 -0.4504 -0.1765
-7 -3 -12 -1.3277 0.3785
-7 -3 -11 0.3711 -0.2697
-7 -3 -10 -0.8934 -1.3082
-7 -3 -9 -1.5151 1.4800
-7 -3 -8 0.3540 -0.3459
-7 -3 -7 0.8034 -0.0128
-7 -3 -6 -2.4281 2.2428
-7 -3 -5 2.0693 0.6566
-7 -3 -4 2.7556 -3.8106
-7 -3 -3 -2.7813 2.5018
-7 -3 -2 2.3157 7.2037
-7 -3 -1 5.1651 1.4651
-7 -1 -13 -1.1729 0.2656
-7 -1 -12 1.0942 -1.1388
-7 -1 -11 -0.6272 0.1964
-7 -1 -10 3.8670 -0.9607
-7 -1 -9 -0.0403 0.9245
-7 -1 -8 0.4848 -6.4601
-7 -1 -7 -0.1704 0.0782
-7 -1 -6 -0.6884 -0.8099
-7 -1 -5 2.0483 -1.6495
-7 -1 -4 2.3898 -9.7564
-7 -1 -3 -2.4339 2.2013
-7 -1 -2 1.7156 5.6419
-7 -1 -1 3.6382 -1.1453
-6 -26 -2 6.1549 0.7471
-6 -24 -4 5.3724 -0.5804
-6 -24 -3 6.1745 0.3450
-6 -24 -2 8.8303 4.9746
-6 -24 -1 5.2634 7.6367
-6 -22 -5 0.5199 -2.9258
-6 -22 -4 5.6891 -1.0099
-6 -22 -3 7.0927 -2.1631
-6 -22 -2 13.7568 11.8716
-6 -22 -1 2.5070 2.7440
-6 -20 -8 1.6206 3.6575
-6 -20 -7 0.1889 3.4154
-6 -20 -6 -2.8860 -1.4977
-6 -20 -5 1.6207 -1.9736
-6 -20 -4 1.3138 0.2709
-6 -20 -3 0.3002 -5.9017
-6 -20 -2 17.1976 10.9626
-6 -20 -1 1.1052 -5.8117
-6 -18 -10 0.3515 0.3421
-6 -18 -9 4.8080 4.8132
-6 -18 -8 1.8708 4.4087
-6 -18 -7 0.2415 4.2756
-6 -18 -6 -5.2604 4.4620
-6 -18 -5 0.1747 -0.2578
-6 -18 -4 -1.7128 -0.3907
-6 -18 -3 -6.6467 -4.1439
-6 -18 -2 4.8713 2.5662
-6 -18 -1 0.1185 -9.1758
-6 -16 -10 0.7113 0.0144
-6 -16 -9 5.9172 5.8036
-6 -16 -8 0.1433 2.8594
-6 -16 -7 1.2274 5.6961
-6 -16 -6 -4.5317 0.7827
-6 -16 -5 0.4732 2.0392
-6 -16 -4 -5.1037 1.3479
-6 -16 -3 -3.2567 -1.4003
-6 -16 -2 -8.4443 -2.9568
-6 -16 -1 -9.6741 -13.5526
-6 -14 -11 2.2143 -0.7440
-6 -14 -10 1.8778 -0.6741
-6 -14 -9 3.2555 2.0432
-6 -14 -8 -2.6219 -1.4071
-6 -14 -7 0.1731 3.7760
-6 -14 -6 -0.6431 -2.8163
-6 -14 -5 2.9338 -1.2400
-6 -14 -4 -10.6592 0.9754
-6 -14 -3 2.5059 2.6905
-6 -14 -2 -7.1368 3.8686
-6 -14 -1 -16.6581 -16.1485
-6 -12 -12 0.0718 -1.1842
-6 -12 -11 -1.5117 1.4930
-6 -12 -10 -0.2698 -0.2082
-6 -12 -9 1.3267 -0.6709
-6 -12 -8 -2.2457 -3.7992
-6 -12 -7 -1.3710 -4.4266
-6 -12 -6 0.5675 -1.3459
-6 -12 -5 2.6834 -4.9971
-6 -12 -4 -9.4523 1.0751
-6 -12 -3 4.4680 4.6486
-6 -12 -2 -0.2557 3.4916
-6 -12 -1 -10.8640 -7.9095
-6 -10 -13 1.2377 1.4652
-6 -10 -12 -1.5746 -1.2379
-6 -10 -11 -0.6595 0.6426
-6 -10 -10 -2.1025 -1.2314
-6 -10 -9 -2.0583 0.0217
-6 -10 -8 -0.3403 -2.7625
-6 -10 -7 -4.2556 -8.0789
-6 -10 -6 -2.0109 -1.7349
-6 -10 -5 3.9941 -1.4861
-6 -10 -4 -0.2242 4.3768
-6 -10 -3 3.0940 3.3740
-6 -10 -2 -4.9218 -13.1387
-6 -10 -1 -3.6536 -0.5531
-6 -8 -13 5.6642 -1.4566
-6 -8 -12 -0.9828 2.0508
-6 -8 -11 0.4013 -0.3127
-6 -8 -10 -0.8738 -1.9131
-6 -8 -9 -0.9289 0.7968
-6 -8 -8 -0.9537 -1.5192
-6 -8 -7 -5.1641 -3.2595
-6 -8 -6 0.7991 -3.0354
-6 -8 -5 3.4411 -1.0452
-6 -8 -4 0.7008 1.3024
-6 -8 -3 -5.4372 10.0825
-6 -8 -2 -12.9430 -16.4278
-6 -8 -1 0.2514 -0.3139
-6 -6 -13 7.0480 -4.7865
-6 -6 -12 -1.9736 2.7560
-6 -6 -11 0.6400 1.0305
-6 -6 -10 -0.2211 1.3018
-6 -6 -9 -0.0219 -0.2367
-6 -6 -8 -0.6088 -1.9069
-6 -6 -7 -0.7207 1.3454
-6 -6 -6 1.8781 -1.2917
-6 -6 -5 -0.0010 0.1035
-6 -6 -4 -3.8174 -0.0827
-6 -6 -3 -12.1088 9.0794
-6 -6 -2 -3.8894 -3.7239
-6 -6 -1 2.3708 8.3387
-6 -4 -13 1.8891 -0.9404
-6 -4 -12 -1.8839 1.1095
-6 -4 -11 1.5706 0.2684
-6 -4 -10 -1.0303 0.1878
-6 -4 -9 -2.6772 -0.1475
-6 -4 -8 -0.1177 -0.7230
-6 -4 -7 2.3375 1.5692
-6 -4 -6 -1.5289 2.1915
-6 -4 -5 0.2409 3.5475
-6 -4 -4 -0.0448 -1.5701
-6 -4 -3 -7.3111 1.1975
-6 -4 -2 4.3102 6.1087
-6 -4 -1 3.2891 11.3548
-6 -2 -13 -1.4484 1.6867
-6 -2 -12 0.6172 -0.5183
-6 -2 -11 -1.0862 -0.0036
-6 -2 -10 1.0892 -2.0252
-6 -2 -9 -0.5924 1.1814
-6 -2 -8 0.6270 -2.0417
-6 -2 -7 0.8211 0.1847
-6 -2 -6 -1.7591 0.7529
-6 -2 -5 1.4542 0.3673
-6 -2 -4 2.7457 -7.4968
-6 -2 -3 -1.2121 3.6895
-6 -2 -2 3.7630 3.4923
-6 -2 -1 3.8397 0.1001
-6 0 -12 1.4574 -1.5244
-6 0 -10 3.6119 -0.9793
-6 0 -8 1.9672 -4.8980
-6 0 -6 -0.9793 -2.3138
-6 0 -4 1.3069 -9.7619
-6 0 -2 4.5526 -2.0627
-5 -25 -3 1.3730 -1.0851
-5 -25 -2 5.4437 2.7260
-5 -25 -1 6.0306 6.3196
-5 -23 -5 0.8408 -0.4787
-5 -23 -4 8.2277 -0.3316
-5 -23 -3 2.5570 -1.0762
-5 -23 -2 9.9767 11.6279
-5 -23 -1 6.3520 5.6234
-5 -21 -7 0.6276 2.2487
-5 -21 -6 -1.8458 -6.3807
-5 -21 -5 1.9945 -0.3664
-5 -21 -4 4.2160 -0.6622
-5 -21 -3 0.8528 -4.5542
-5 -21 -2 16.9942 15.1137
-5 -21 -1 3.7171 -2.3565
-5 -19 -10 1.9129 0.5275
-5 -19 -9 2.7121 4.8832
-5 -19 -8 2.3347 4.7621
-5 -19 -7 0.5594 3.3010
-5 -19 -6 -5.0182 2.6396
-5 -19 -5 1.8019 0.3301
-5 -19 -4 -2.0034 -0.3370
-5 -19 -3 -5.2838 -5.8366
-5 -19 -2 13.5848 6.5191
-5 -19 -1 3.5833 -3.2244
-5 -17 -10 0.3830 -0.0366
-5 -17 -9 6.7602 7.7552
-5 -17 -8 1.6441 6.1049
-5 -17 -7 1.1285 4.9428
-5 -17 -6 -5.0168 5.4144
-5 -17 -5 -1.1969 0.9679
-5 -17 -4 -4.8996 0.3230
-5 -17 -3 -5.0266 -1.3556
-5 -17 -2 -1.0852 -3.9782
-5 -17 -1 -4.6328 -8.5072
-5 -15 -11 2.8078 -1.0899
-5 -15 -10 0.3511 -0.7933
-5 -15 -9 5.4424 5.2842
-5 -15 -8 -0.3241 3.0526
-5 -15 -7 -1.0085 6.2354
-5 -15 -6 -2.3449 1.6386
-5 -15 -5 0.8014 -0.8684
-5 -15 -4 -6.3931 1.0142
-5 -15 -3 0.6926 3.3169
-5 -15 -2 -7.5218 -3.8730
-5 -15 -1 -18.4960 -19.8648
-5 -13 -12 0.1269 -0.3100
-5 -13 -11 -0.4121 -0.5725
-5 -13 -10 0.1999 -0.6745
-5 -13 -9 3.2766 1.5528
-5 -13 -8 -1.8186 -0.2390
-5 -13 -7 -1.8699 0.2690
-5 -13 -6 2.0926 -0.6090
-5 -13 -5 0.6549 -6.5262
-5 -13 -4 -7.4138 -1.4145
-5 -13 -3 5.3892 8.1656
-5 -13 -2 -3.2600 3.3491
-5 -13 -1 -17.7490 -16.5175
-5 -11 -13 -0.4756 2.2083
-5 -11 -12 -1.9630 -1.6142
-5 -11 -11 -1.4871 0.8147
-5 -11 -10 -1.9622 -1.2476
-5 -11 -9 -0.9757 -0.1636
-5 -11 -8 -0.0143 0.0853
-5 -11 -7 -3.2499 -5.0147
-5 -11 -6 0.1039 -2.8969
-5 -11 -5 1.6910 -5.4799
-5 -11 -4 -1.0792 1.8386
-5 -11 -3 6.7315 5.9681
-5 -11 -2 -1.1168 -3.7582
-5 -11 -1 -5.6750 2.2772
-5 -9 -13 3.1127 1.1628
-5 -9 -12 -1.9015 0.5496
-5 -9 -11 0.1037 -0.1746
-5 -9 -10 -0.8882 -2.6299
-5 -9 -9 -2.1657 0.3136
-5 -9 -8 -0.5254 0.2119
-5 -9 -7 -7.0157 -2.8115
-5 -9 -6 -0.9772 -4.4614
-5 -9 -5 4.3660 -1.4051
-5 -9 -4 4.9348 3.3416
-5 -9 -3 0.8567 7.4831
-5 -9 -2 -7.7848 -13.2326
-5 -9 -1 0.7058 7.1522
-5 -7 -13 7.9099 -4.4385
-5 -7 -12 -1.4341 2.1967
-5 -7 -11 -0.5275 1.0502
-5 -7 -10 0.6906 -0.3746
-5 -7 -9 0.8849 0.8014
-5 -7 -8 -2.0882 -0.6502
-5 -7 -7 -3.6919 0.2740
-5 -7 -6 3.5844 -4.1544
-5 -7 -5 -0.4631 -1.4151
-5 -7 -4 0.5820 0.6854
-5 -7 -3 -10.0896 11.7881
-5 -7 -2 -7.1215 -7.3221
-5 -7 -1 1.2506 6.6340
-5 -5 -14 2.0075 -3.5566
-5 -5 -13 4.7538 -3.3815
-5 -5 -12 -1.7468 1.0941
-5 -5 -11 2.0512 1.5647
-5 -5 -10 -0.5382 1.3906
-5 -5 -9 -2.1627 -1.0572
-5 -5 -8 -0.9984 -1.0980
-5 -5 -7 2.4279 2.2642
-5 -5 -6 2.0333 -1.2058
-5 -5 -5 -1.5124 2.3887
-5 -5 -4 -1.7543 1.0555
-5 -5 -3 -13.5166 0.5735
-5 -5 -2 2.5364 1.8286
-5 -5 -1 2.5658 18.7577
-5 -3 -14 2.1269 -3.7215
-5 -3 -13 -0.5255 2.1268
-5 -3 -12 -0.1940 0.5962
-5 -3 -11 0.6706 0.2530
-5 -3 -10 -0.1486 -1.4611
-5 -3 -9 -2.1402 -0.2778
-5 -3 -8 -0.6472 -0.6173
-5 -3 -7 2.3431 1.2603
-5 -3 -6 -1.1343 1.5662
-5 -3 -5 0.4813 2.9333
-5 -3 -4 1.2061 -3.1356
-5 -3 -3 -3.5697 -0.7676
-5 -3 -2 5.1099 1.2005
-5 -3 -1 4.1872 10.9936
-5 -1 -13 -0.8548 1.7791
-5 -1 -12 1.1117 -0.7751
-5 -1 -11 -1.6564 0.0738
-5 -1 -10 1.6928 -1.3184
-5 -1 -9 0.7966 0.8526
-5 -1 -8 1.5012 -0.6328
-5 -1 -7 0.3632 -0.3495
-5 -1 -6 -1.2141 -1.9227
-5 -1 -5 -0.2045 -0.1375
-5 -1 -4 0.8411 -6.4623
-5 -1 -3 1.9873 3.6701
-5 -1 -2 6.9393 -9.9801
-5 -1 -1 2.2959 -1.8813
-4 -26 -4 3.5145 0.5876
-4 -26 -3 -0.9399 -1.7070
-4 -26 -2 -0.7403 0.1151
-4 -24 -5 1.0865 2.5377
-4 -24 -4 8.4888 1.0169
-4 -24 -3 -3.1137 -2.2267
-4 -24 -2 4.2945 5.3772
-4 -24 -1 8.6862 7.3340
-4 -22 -6 -0.3879 -8.7376
-4 -22 -5 0.1064 2.1084
-4 -22 -4 7.2887 -1.3634
-4 -22 -3 -1.9302 -1.9373
-4 -22 -2 11.4260 13.1525
-4 -22 -1 6.2146 1.8510
-4 -20 -9 0.9658 3.3501
-4 -20 -8 2.2281 2.4574
-4 -20 -7 -0.0092 1.4763
-4 -20 -6 -4.3244 -0.5979
-4 -20 -5 2.2762 1.3041
-4 -20 -4 2.7063 -1.2874
-4 -20 -3 -3.9363 -4.1530
-4 -20 -2 14.2797 9.2351
-4 -20 -1 4.3444 3.5238
-4 -18 -10 2.3927 0.8047
-4 -18 -9 5.0167 7.4896
-4 -18 -8 1.8593 5.3424
-4 -18 -7 0.7071 1.6781
-4 -18 -6 -4.5935 5.8455
-4 -18 -5 -0.0674 0.9178
-4 -18 -4 -2.3745 -0.7847
-4 -18 -3 -5.4886 -1.3579
-4 -18 -2 6.6008 -0.0514
-4 -18 -1 0.2874 4.8840
-4 -16 -11 2.0822 0.3750
-4 -16 -10 -0.2147 -1.0410
-4 -16 -9 5.5091 6.9089
-4 -16 -8 1.2422 6.6232
-4 -16 -7 -0.9619 4.0676
-4 -16 -6 -2.9890 4.6943
-4 -16 -5 -0.9347 0.5962
-4 -16 -4 -3.3388 0.1817
-4 -16 -3 -2.0260 3.3893
-4 -16 -2 -3.1250 -5.9660
-4 -16 -1 -13.5796 -12.0398
-4 -14 -12 0.8159 -0.1075
-4 -14 -11 0.1481 -1.5136
-4 -14 -10 -0.7319 -1.2346
-4 -14 -9 3.9255 3.3276
-4 -14 -8 -0.0174 3.0080
-4 -14 -7 -2.6541 2.4867
-4 -14 -6 0.4730 2.2226
-4 -14 -5 -0.7862 -3.3966
-4 -14 -4 -2.3010 -1.1649
-4 -14 -3 2.8331 7.0003
-4 -14 -2 -5.5785 -4.9547
-4 -14 -1 -20.1489 -23.6165
-4 -12 -13 -1.0973 2.6501
-4 -12 -12 -1.6326 -1.0757
-4 -12 -11 -2.8649 -0.5266
-4 -12 -10 -1.8133 -1.2905
-4 -12 -9 0.6557 0.9888
-4 -12 -8 0.0062 2.3873
-4 -12 -7 -0.9155 -2.2236
-4 -12 -6 2.9174 -1.2148
-4 -12 -5 -3.2302 -6.6331
-4 -12 -4 -0.5139 -1.5308
-4 -12 -3 8.7698 6.1536
-4 -12 -2 -2.4085 -1.4254
-4 -12 -1 -8.9854 -5.6256
-4 -10 -13 -0.7040 3.4409
-4 -10 -12 -2.4236 -0.4469
-4 -10 -11 -1.0435 -0.0777
-4 -10 -10 -1.6408 -2.0748
-4 -10 -9 -2.9114 -0.5943
-4 -10 -8 0.7807 2.2565
-4 -10 -7 -4.7861 -0.0698
-4 -10 -6 -0.2934 -4.4982
-4 -10 -5 1.9960 -3.6251
-4 -10 -4 4.5825 1.9663
-4 -10 -3 8.7185 1.4589
-4 -10 -2 0.4755 -1.2110
-4 -10 -1 2.3959 15.8606
-4 -8 -13 5.0450 -1.6001
-4 -8 -12 -1.5986 1.4750
-4 -8 -11 -1.6544 0.3443
-4 -8 -10 1.2289 -1.4893
-4 -8 -9 0.4338 0.9061
-4 -8 -8 -1.9761 0.9131
-4 -8 -7 -6.5834 1.7423
-4 -8 -6 2.0371 -4.5212
-4 -8 -5 1.7885 -3.1956
-4 -8 -4 5.5523 1.5046
-4 -8 -3 -0.5851 6.7241
-4 -8 -2 0.0317 -0.2373
-4 -8 -1 2.8210 12.6050
-4 -6 -13 6.2904 -5.0938
-4 -6 -12 -1.4833 0.3872
-4 -6 -11 0.0942 1.9292
-4 -6 -10 0.2651 0.8726
-4 -6 -9 0.2319 0.3511
-4 -6 -8 -1.8954 0.4324
-4 -6 -7 0.1820 1.5301
-4 -6 -6 4.5541 -3.7599
-4 -6 -5 -2.2558 -1.8675
-4 -6 -4 2.0453 2.7613
-4 -6 -3 -12.3833 1.5480
-4 -6 -2 1.1149 -0.9720
-4 -6 -1 2.4898 17.8208
-4 -4 -14 2.9998 -5.6980
-4 -4 -13 1.0441 0.0235
-4 -4 -12 -0.7823 0.4838
-4 -4 -11 2.9731 1.1455
-4 -4 -10 -0.3835 -0.0424
-4 -4 -9 -3.1414 -1.6251
-4 -4 -8 -1.0359 -0.7046
-4 -4 -7 3.1359 2.0360
-4 -4 -6 1.4081 -0.4196
-4 -4 -5 0.3350 2.3322
-4 -4 -4 0.3859 1.8929
-4 -4 -3 -10.4377 -8.2753
-4 -4 -2 1.8384 -2.5998
-4 -4 -1 6.1228 23.4667
-4 -2 -14 0.9304 -3.0571
-4 -2 -13 -0.9100 3.0866
-4 -2 -12 0.5539 0.6481
-4 -2 -11 -1.1433 0.1742
-4 -2 -10 1.1176 -1.0347
-4 -2 -9 0.6420 0.4789
-4 -2 -8 -0.4527 0.6282
-4 -2 -7 1.2561 -0.3815
-4 -2 -6 -0.3424 -0.3743
-4 -2 -5 -0.9814 0.6802
-4 -2 -4 0.3727 -2.2476
-4 -2 -3 2.0850 1.3340
-4 -2 -2 5.3649 -10.5789
-4 -2 -1 5.8925 3.5297
-4 0 -14 -0.4658 -0.1004
-4 0 -12 0.9519 -0.6966
-4 0 -10 1.2428 0.1516
-4 0 -8 1.3405 2.6371
-4 0 -6 -0.7001 -3.3070
-4 0 -4 0.5448 -2.6269
-4 0 -2 9.8452 -18.6635
-3 -25 -5 1.0900 3.8789
-3 -25 -4 8.7457 0.1959
-3 -25 -3 -5.2427 -3.1047
-3 -25 -2 -2.2129 -1.5561
-3 -25 -1 7.8549 4.5905
-3 -23 -6 1.0435 -9.1296
-3 -23 -5 -1.3797 5.0308
-3 -23 -4 8.5600 -1.0020
-3 -23 -3 -6.2614 -2.1474
-3 -23 -2 7.1432 4.4983
-3 -23 -1 8.6386 5.3322
-3 -21 -9 0.4252 1.2039
-3 -21 -8 1.7716 0.2422
-3 -21 -7 -0.7851 0.2166
-3 -21 -6 -2.3389 -3.3339
-3 -21 -5 -0.5026 2.6936
-3 -21 -4 7.7567 -2.5636
-3 -21 -3 -4.0296 -1.1803
-3 -21 -2 10.7516 6.3497
-3 -21 -1 4.3398 6.3147
-3 -19 -10 3.6339 2.2799
-3 -19 -9 2.9322 5.0669
-3 -19 -8 1.8561 0.3921
-3 -19 -7 -0.7463 -0.6883
-3 -19 -6 -4.6398 4.3728
-3 -19 -5 1.0948 0.7037
-3 -19 -4 5.2321 -1.3820
-3 -19 -3 -4.8128 -0.2721
-3 -19 -2 8.5174 2.1880
-3 -19 -1 1.6449 15.7823
-3 -17 -10 2.1581 0.0700
-3 -17 -9 4.1342 6.5904
-3 -17 -8 0.6198 5.7276
-3 -17 -7 -0.9504 -0.2404
-3 -17 -6 -1.9205 4.6687
-3 -17 -5 -0.6637 0.9497
-3 -17 -4 -0.1468 -1.1349
-3 -17 -3 -3.6077 3.9431
-3 -17 -2 3.1723 0.1060
-3 -17 -1 -7.2211 5.4237
-3 -15 -11 0.4068 -0.1867
-3 -15 -10 -0.9095 -1.4984
-3 -15 -9 2.8770 3.5673
-3 -15 -8 1.2073 5.5047
-3 -15 -7 -3.0363 1.1219
-3 -15 -6 -1.4801 3.5264
-3 -15 -5 -0.4987 0.7409
-3 -15 -4 0.4348 -0.6603
-3 -15 -3 -1.1737 5.4927
-3 -15 -2 -3.2469 -6.9126
-3 -15 -1 -16.9657 -18.4839
-3 -13 -12 0.1786 -0.8666
-3 -13 -11 -3.4536 -1.4484
-3 -13 -10 -1.6803 -1.4654
-3 -13 -9 1.2148 1.6431
-3 -13 -8 0.5041 3.1554
-3 -13 -7 -0.3421 -1.3837
-3 -13 -6 1.3594 2.4441
-3 -13 -5 -4.9457 -2.8336
-3 -13 -4 2.2327 -1.1382
-3 -13 -3 5.3430 4.1407
-3 -13 -2 -5.9938 -10.0741
-3 -13 -1 -11.3917 -16.8299
-3 -11 -13 -2.4827 4.2635
-3 -11 -12 -1.8367 -0.6544
-3 -11 -11 -3.0260 -0.6397
-3 -11 -10 -2.1984 -1.4547
-3 -11 -9 -2.5582 -0.3593
-3 -11 -8 1.0330 3.0973
-3 -11 -7 0.0922 0.6761
-3 -11 -6 1.6495 -1.5372
-3 -11 -5 -4.0122 -3.9247
-3 -11 -4 2.4002 -0.5147
-3 -11 -3 12.2788 -3.0092
-3 -11 -2 1.8891 3.2861
-3 -11 -1 2.2463 11.8580
-3 -9 -13 0.2016 1.7844
-3 -9 -12 -1.4744 1.0510
-3 -9 -11 -2.0643 -0.2615
-3 -9 -10 0.5985 -0.9050
-3 -9 -9 -1.4211 -0.4375
-3 -9 -8 -0.3499 1.2824
-3 -9 -7 -5.5319 4.7409
-3 -9 -6 0.3560 -2.7777
-3 -9 -5 2.2068 -4.1660
-3 -9 -4 4.4181 0.0336
-3 -9 -3 9.3099 -3.5997
-3 -9 -2 12.9370 16.6658
-3 -9 -1 6.0262 22.4130
-3 -7 -14 0.1089 -0.8849
-3 -7 -13 4.7951 -3.9155
-3 -7 -12 -1.2340 0.2007
-3 -7 -11 -2.5163 0.9693
-3 -7 -10 1.3027 -0.0410
-3 -7 -9 1.9881 1.6814
-3 -7 -8 -2.1470 1.8166
-3 -7 -7 -3.0741 2.2697
-3 -7 -6 3.3786 -2.5415
-3 -7 -5 -0.6241 -5.7727
-3 -7 -4 6.8766 2.3189
-3 -7 -3 -3.0544 -0.3285
-3 -7 -2 10.1821 7.3832
-3 -7 -1 3.3207 16.8268
-3 -5 -14 2.8253 -5.7199
-3 -5 -13 2.3724 -2.8159
-3 -5 -12 -1.0368 -1.0339
-3 -5 -11 2.3237 1.5074
-3 -5 -10 -0.6675 0.2550
-3 -5 -9 -1.6921 -0.5626
-3 -5 -8 -0.3440 0.9112
-3 -5 -7 2.2573 1.3027
-3 -5 -6 3.1839 -2.0968
-3 -5 -5 0.0803 -1.8111
-3 -5 -4 4.5933 5.3564
-3 -5 -3 -12.7388 -11.0855
-3 -5 -2 -2.1586 -7.8277
-3 -5 -1 6.7134 25.2847
-3 -3 -14 1.5322 -5.9123
-3 -3 -13 -0.6169 2.0852
-3 -3 -12 0.0576 0.9721
-3 -3 -11 1.6596 0.4980
-3 -3 -10 1.4536 -0.2265
-3 -3 -9 -0.9236 -0.7063
-3 -3 -8 -0.6897 -0.8723
-3 -3 -7 1.9474 0.1414
-3 -3 -6 1.6586 -0.2524
-3 -3 -5 0.1814 0.6116
-3 -3 -4 0.1475 1.7679
-3 -3 -3 -4.1579 -7.6055
-3 -3 -2 -3.7237 -9.6378
-3 -3 -1 10.1656 14.7923
-3 -1 -14 -0.4187 -0.2628
-3 -1 -13 -0.2148 1.7127
-3 -1 -12 0.8862 -0.0987
-3 -1 -11 -1.3193 0.0648
-3 -1 -10 1.9182 1.4409
-3 -1 -9 1.6127 0.8090
-3 -1 -8 0.1508 2.8423
-3 -1 -7 0.5305 -1.1501
-3 -1 -6 0.4565 -2.3965
-3 -1 -5 -1.8413 -0.4658
-3 -1 -4 1.7443 0.2593
-3 -1 -3 2.9833 2.1825
-3 -1 -2 7.5567 -12.7860
-3 -1 -1 4.8331 -1.5176
-2 -26 -4 8.4373 -2.2454
-2 -26 -3 -3.1557 -1.6649
-2 -26 -2 -7.4277 -4.6448
-2 -26 -1 4.1510 -0.2897
-2 -24 -5 -0.9706 5.7942
-2 -24 -4 10.5051 -1.6234
-2 -24 -3 -7.3838 -3.1326
-2 -24 -2 3.4214 -4.9911
-2 -24 -1 8.3276 4.8972
-2 -22 -6 0.7957 -5.9975
-2 -22 -5 -2.8631 4.3113
-2 -22 -4 9.3745 -3.0916
-2 -22 -3 -5.2674 -0.6719
-2 -22 -2 10.7378 -1.5741
-2 -22 -1 5.1977 5.7141
-2 -20 -8 2.5422 -3.9045
-2 -20 -7 -1.5185 -1.0238
-2 -20 -6 -4.1684 2.4118
-2 -20 -5 -0.3589 0.9440
-2 -20 -4 13.4694 -2.0148
-2 -20 -3 -3.5722 0.8522
-2 -20 -2 6.9486 -1.5000
-2 -20 -1 1.3246 15.1121
-2 -18 -9 2.6868 4.5389
-2 -18 -8 -0.1559 -0.3679
-2 -18 -7 -1.5303 -2.3452
-2 -18 -6 -1.7023 3.6212
-2 -18 -5 0.2469 0.0270
-2 -18 -4 7.8721 -0.9702
-2 -18 -3 -3.4206 3.6533
-2 -18 -2 5.6408 4.0186
-2 -18 -1 -3.0218 17.6432
-2 -16 -11 0.3671 1.2933
-2 -16 -10 1.5016 -0.5718
-2 -16 -9 1.6636 3.0852
-2 -16 -8 -0.0539 5.2364
-2 -16 -7 -2.5831 -1.4565
-2 -16 -6 -0.3229 1.8520
-2 -16 -5 0.1829 1.7687
-2 -16 -4 0.9448 -1.4100
-2 -16 -3 -2.8557 5.1771
-2 -16 -2 2.4997 2.7741
-2 -16 -1 -10.7758 -3.0025
-2 -14 -12 2.9314 -1.4503
-2 -14 -11 -2.3652 -0.6379
-2 -14 -10 -1.0015 -1.2405
-2 -14 -9 0.6086 1.0694
-2 -14 -8 1.1486 3.3824
-2 -14 -7 -1.4976 -1.6163
-2 -14 -6 -2.3060 4.2182
-2 -14 -5 -2.3664 1.4187
-2 -14 -4 2.9212 0.6316
-2 -14 -3 -0.0508 2.8267
-2 -14 -2 -5.7484 -14.2800
-2 -14 -1 -10.8697 -17.5854
-2 -12 -13 -1.5625 3.3901
-2 -12 -12 0.2840 -0.9337
-2 -12 -11 -4.0422 -1.0789
-2 -12 -10 -1.6634 -1.3014
-2 -12 -9 -1.5226 0.2441
-2 -12 -8 0.4910 2.3770
-2 -12 -7 2.3650 -0.8389
-2 -12 -6 0.1943 3.4494
-2 -12 -5 -6.6125 -1.1539
-2 -12 -4 2.2539 0.5879
-2 -12 -3 8.3318 -3.2758
-2 -12 -2 -3.7233 -8.1083
-2 -12 -1 -0.3470 -1.2649
-2 -10 -13 -2.4871 3.3190
-2 -10 -12 -0.5900 0.7991
-2 -10 -11 -2.3139 -0.5680
-2 -10 -10 -0.4216 0.0316
-2 -10 -9 -2.6650 -1.1280
-2 -10 -8 0.5880 0.6203
-2 -10 -7 -0.9976 4.5961
-2 -10 -6 0.0439 0.7934
-2 -10 -5 -1.3719 -2.9352
-2 -10 -4 -0.4649 -1.9381
-2 -10 -3 12.4022 -9.2950
-2 -10 -2 17.4748 25.7467
-2 -10 -1 6.8547 20.9033
-2 -8 -14 -1.0807 2.3121
-2 -8 -13 1.2257 -0.9115
-2 -8 -12 -0.5641 0.9853
-2 -8 -11 -3.0108 -0.0407
-2 -8 -10 1.9130 0.4967
-2 -8 -9 1.1180 0.8264
-2 -8 -8 -1.3836 0.7774
-2 -8 -7 -3.9424 4.4053
-2 -8 -6 0.5244 0.9361
-2 -8 -5 1.1569 -6.0019
-2 -8 -4 5.0203 -0.7972
-2 -8 -3 6.0307 -5.5655
-2 -8 -2 27.8380 29.2415
-2 -8 -1 4.8009 18.8460
-2 -6 -14 1.6190 -2.7048
-2 -6 -13 2.3833 -3.4177
-2 -6 -12 -0.9511 -1.9546
-2 -6 -11 -0.5708 0.8330
-2 -6 -10 -0.4704 -0.3621
-2 -6 -9 0.7808 1.2891
-2 -6 -8 -0.0755 3.1195
-2 -6 -7 0.0811 0.8650
-2 -6 -6 1.9956 -0.2393
-2 -6 -5 -0.0668 -5.5092
-2 -6 -4 10.8664 5.5313
-2 -6 -3 -6.3951 -8.4193
-2 -6 -2 5.3915 -4.4170
-2 -6 -1 4.9133 18.3667
-2 -4 -14 1.7245 -7.5709
-2 -4 -13 -0.1356 -0.2446
-2 -4 -12 -0.3185 -0.7062
-2 -4 -11 2.8178 0.6469
-2 -4 -10 0.6406 -0.1930
-2 -4 -9 -1.5525 -0.7226
-2 -4 -8 1.2860 -0.6824
-2 -4 -7 1.7747 0.2195
-2 -4 -6 2.6802 -0.6638
-2 -4 -5 1.4749 -1.2241
-2 -4 -4 3.9023 5.1735
-2 -4 -3 -8.9599 -12.8758
-2 -4 -2 -15.1044 -15.8402
-2 -4 -1 10.1384 19.3956
-2 -2 -14 -0.6792 -3.1121
-2 -2 -13 -0.2834 1.7531
-2 -2 -12 0.8621 0.5482
-2 -2 -11 -0.1838 0.1190
-2 -2 -10 3.5763 1.9623
-2 -2 -9 1.2972 0.5406
-2 -2 -8 0.1649 -0.5718
-2 -2 -7 0.9049 -1.3734
-2 -2 -6 2.5416 -1.1697
-2 -2 -5 -1.5646 -0.6313
-2 -2 -4 1.4272 1.3242
-2 -2 -3 0.5617 -1.7719
-2 -2 -2 -4.4132 -3.6707
-2 -2 -1 9.1260 2.7451
-2 0 -14 -1.0074 2.0770
-2 0 -12 1.3869 -1.2146
-2 0 -10 2.8992 3.9103
-2 0 -8 0.6258 3.1228
-2 0 -6 1.1447 -2.7466
-2 0 -4 5.9698 1.6752
-2 0 -2 8.5628 0.8547
-1 -25 -5 -0.1241 3.1879
-1 -25 -4 12.8012 -3.7327
-1 -25 -3 -3.8241 -1.8155
-1 -25 -2 -2.8356 -9.3718
-1 -25 -1 4.2122 1.3792
-1 -23 -6 2.9962 -7.6660
-1 -23 -5 -1.8982 3.6863
-1 -23 -4 9.9527 -3.3881
-1 -23 -3 -4.4350 -1.2825
-1 -23 -2 12.0127 -9.2612
-1 -23 -1 4.3619 3.2528
-1 -21 -7 -0.8224 -0.4731
-1 -21 -6 -1.5985 -0.7735
-1 -21 -5 -1.6452 1.4818
-1 -21 -4 15.4343 -3.0773
-1 -21 -3 -2.3865 0.5196
-1 -21 -2 9.2020 -7.8396
-1 -21 -1 1.3816 6.8465
-1 -19 -9 1.2939 1.7927
-1 -19 -8 1.0735 -6.6364
-1 -19 -7 -1.3124 -1.4619
-1 -19 -6 -3.2154 3.4188
-1 -19 -5 0.0315 -0.2492
-1 -19 -4 18.0530 -0.2784
-1 -19 -3 -1.9297 1.9190
-1 -19 -2 4.1988 -0.5535
-1 -19 -1 -0.8474 13.2497
-1 -17 -10 4.6092 1.4607
-1 -17 -9 0.9915 1.9970
-1 -17 -8 -1.9883 0.9645
-1 -17 -7 -1.4980 -1.8801
-1 -17 -6 1.4839 -0.1037
-1 -17 -5 0.2789 0.4694
-1 -17 -4 5.4607 -1.2327
-1 -17 -3 -1.8966 3.4427
-1 -17 -2 6.1332 11.2615
-1 -17 -1 -4.3653 6.8666
-1 -15 -12 4.2598 -1.5774
-1 -15 -11 -0.7112 0.3841
-1 -15 -10 0.8366 -0.4847
-1 -15 -9 0.1347 0.5567
-1 -15 -8 0.3288 3.5125
-1 -15 -7 -1.6468 -1.4197
-1 -15 -6 -2.2739 2.1308
-1 -15 -5 -0.0459 1.8099
-1 -15 -4 0.7822 0.0776
-1 -15 -3 -1.7417 2.3415
-1 -15 -2 -0.5036 -3.7676
-1 -15 -1 -6.5885 -7.0624
-1 -13 -13 -0.2656 1.5352
-1 -13 -12 3.2797 -1.8148
-1 -13 -11 -2.5220 -0.5850
-1 -13 -10 -0.5811 -0.9913
-1 -13 -9 -0.5654 0.1703
-1 -13 -8 0.4954 1.4109
-1 -13 -7 0.8865 -1.3983
-1 -13 -6 -3.8551 6.5074
-1 -13 -5 -3.3366 0.9975
-1 -13 -2 -8.0457 -20.6213
-1 -13 -1 -2.4242 -7.0027
-1 -11 -13 -1.6531 2.2892
-1 -11 -12 0.9150 0.1429
-1 -11 -11 -2.0322 -0.5239
-1 -11 -10 -0.6456 -0.0660
-1 -11 -9 -1.7958 -0.5105
-1 -11 -8 0.1400 0.0224
-1 -11 -7 1.5280 1.4126
-1 -11 -6 -1.0421 5.0933
-1 -11 -5 -3.3008 -0.6738
-1 -11 -4 -2.3303 -0.4079
-1 -11 -2 8.8266 12.8385
-1 -11 -1 3.5281 7.6888
-1 -9 -14 -0.9352 3.7461
-1 -9 -13 -0.9240 0.9126
-1 -9 -12 0.4507 1.7585
-1 -9 -11 -1.6476 -0.2904
-1 -9 -10 1.6475 1.7179
-1 -9 -9 -0.5264 -0.3558
-1 -9 -8 -0.4262 -1.5102
-1 -9 -7 -1.5883 3.7098
-1 -9 -6 -1.1071 4.1288
-1 -9 -5 0.4100 -2.8564
-1 -9 -4 -2.0567 -4.0931
-1 -9 -1 4.2020 13.9095
-1 -7 -14 -0.0870 1.8409
-1 -7 -13 0.9900 -1.5735
-1 -7 -12 -0.3883 -0.9060
-1 -7 -11 -1.6446 0.0898
-1 -7 -10 0.7535 0.0330
-1 -7 -9 1.1862 1.1123
-1 -7 -8 -0.5749 2.6708
-1 -7 -7 -1.1877 1.4176
-1 -7 -6 -0.5260 3.5011
-1 -7 -5 0.2837 -4.4881
-1 -7 -4 10.7435 2.0543
-1 -7 -3 0.6777 -4.7071
-1 -7 -2 26.1593 16.7728
-1 -7 -1 2.6540 10.3723
-1 -5 -14 1.7591 -5.8830
-1 -5 -13 0.3209 -1.2573
-1 -5 -12 -0.5674 -2.7327
-1 -5 -11 1.0443 0.3504
-1 -5 -10 -0.9225 -1.0544
-1 -5 -9 -0.4261 0.2380
-1 -5 -8 2.6069 2.1437
-1 -5 -7 0.7522 0.0257
-1 -5 -6 1.2400 0.7799
-1 -5 -5 0.9084 -2.4666
-1 -5 -4 11.4911 7.0911
-1 -5 -3 -5.5754 -8.2919
-1 -5 -2 -13.9228 -21.1747
-1 -5 -1 5.0790 12.0126
-1 -3 -14 -0.7579 -6.7637
-1 -3 -13 -0.3150 0.5715
-1 -3 -12 0.5853 0.0856
-1 -3 -11 1.0551 0.1370
-1 -3 -10 3.6170 1.2564
-1 -3 -9 -0.0236 -0.0545
-1 -3 -8 2.0402 -2.9055
-1 -3 -7 0.7088 -0.5922
-1 -3 -6 3.8416 -0.5721
-1 -3 -5 0.1863 -0.6306
-1 -3 -4 1.6668 2.6136
-1 -3 -3 -2.8028 -5.1797
-1 -3 -2 -21.1990 -8.1132
-1 -3 -1 7.1602 6.3262
-1 -1 -14 -1.5611 1.0911
-1 -1 -13 0.0461 0.5510
-1 -1 -12 1.7216 -1.2334
-1 -1 -11 -0.3939 0.0084
-1 -1 -10 4.5406 4.7351
-1 -1 -9 0.8746 0.4521
-1 -1 -8 1.1331 0.3331
-1 -1 -7 0.2814 -0.8017
-1 -1 -6 2.5354 -1.9589
-1 -1 -5 -1.0766 -0.4234
-1 -1 -4 6.9912 1.1670
-1 -1 -3 0.8762 0.4515
-1 -1 -2 1.6873 14.1821
0 -26 -4 11.1996 -4.5111
0 -26 -2 -8.2247 -8.0600
0 -24 -4 12.1207 -3.9705
0 -24 -2 6.8385 -11.9333
0 -22 -6 1.7701 -4.8708
0 -22 -4 12.0261 -3.8492
0 -22 -2 13.8418 -11.0775
0 -20 -8 3.0357 -7.4910
0 -20 -6 -3.7141 2.7024
0 -20 -4 21.2021 -1.2740
0 -20 -2 4.9297 -7.4168
0 -18 -10 5.3451 3.3592
0 -18 -8 -1.4778 -4.5587
0 -18 -6 0.0385 0.9089
0 -18 -4 14.0838 0.0039
0 -18 -2 5.2583 7.9203
0 -16 -10 3.2014 0.4341
0 -16 -8 -1.5595 2.7699
0 -16 -6 0.8378 -0.8265
0 -16 -2 4.8546 9.7987
0 -14 -12 5.0495 -2.3110
0 -14 -10 0.2434 -0.5016
0 -14 -8 0.7299 1.7544
0 -14 -6 -5.0158 5.2138
0 -14 -2 -5.9078 -17.2779
0 -12 -12 2.4923 -1.0297
0 -12 -10 -0.4045 -0.6862
0 -12 -8 -0.1536 0.2397
0 -12 -6 -3.2473 7.4551
0 -12 -2 -3.2238 -10.3978
0 -10 -12 1.1016 1.4383
0 -10 -10 0.6703 1.5368
0 -10 -8 -0.0472 -2.0228
0 -10 -6 -1.4132 5.6572
0 -10 -4 -5.6031 -3.6438
0 -10 -2 27.7874 40.0905
0 -8 -12 0.3643 1.0011
0 -8 -10 2.0029 1.4745
0 -8 -8 -0.9110 -0.1789
0 -8 -6 -1.6255 5.4639
0 -8 -4 3.4105 -2.5944
0 -6 -14 1.1983 -1.6359
0 -6 -12 -0.5664 -2.8266
0 -6 -10 -1.0028 -1.1524
0 -6 -8 1.5227 3.9939
0 -6 -6 -0.6482 3.1327
0 -6 -4 15.1641 5.9493
0 -4 -14 0.3460 -7.9899
0 -4 -12 0.0177 -1.5513
0 -4 -10 1.2481 -0.2862
0 -4 -8 3.5259 -1.1670
0 -4 -6 2.7577 0.2277
0 -4 -4 6.3100 5.2823
0 -4 -2 -27.2670 -21.0753
0 -2 -14 -1.9647 -2.9589
0 -2 -12 1.4189 -0.2599
0 -2 -10 5.3144 3.5518
0 -2 -8 1.7959 -2.7153
0 -2 -6 4.0494 -1.1898
0 -2 -4 3.3915 0.8408
0 -2 -2 -12.3357 9.1994
0 0 -14 -1.5507 3.1273
0 0 -12 2.1267 -2.3018
0 0 -10 4.6742 5.9233
0 0 -8 1.5531 0.8392
0 0 -6 2.1849 -2.1328
0 0 -4 10.6239 1.1837
0 0 -2 5.7150 24.1529
0 0 4 10.6239 -1.1837
0 2 2 -12.3357 -9.1994
0 2 4 3.3915 -0.8408
0 4 0 77.3660 0.0171
0 4 2 -27.2670 21.0753
0 4 4 6.3100 -5.2823
0 6 0 10.8222 -0.0125
0 6 2 5.4232 8.8702
0 6 4 15.1641 -5.9493
0 8 0 -28.7553 -0.0058
0 8 2 42.2465 -42.7821
0 8 4 3.4105 2.5944
0 10 0 -23.4329 0.0002
0 10 2 27.7874 -40.0905
0 10 4 -5.6031 3.6438
0 12 0 -13.8366 0.0045
0 12 2 -3.2238 10.3978
0 12 4 -0.0014 -3.1013
0 12 6 -3.2473 -7.4551
0 14 0 -5.1637 -0.0068
0 14 2 -5.9078 17.2779
0 14 4 1.6248 -2.9834
0 14 6 -5.0158 -5.2138
0 16 0 2.3802 -0.0063
0 16 2 4.8546 -9.7987
0 16 4 1.1156 1.2801
0 16 6 0.8378 0.8265
0 18 0 2.3430 0.0005
0 18 2 5.2583 -7.9203
0 18 4 14.0838 -0.0039
0 18 6 0.0385 -0.9089
0 20 0 5.0930 0.0038
0 20 2 4.9297 7.4168
0 20 4 21.2021 1.2740
0 20 6 -3.7141 -2.7024
0 22 0 2.7215 -0.0029
0 22 2 13.8418 11.0775
0 22 4 12.0261 3.8492
0 22 6 1.7701 4.8708
0 24 0 -0.9944 -0.0038
0 24 2 6.8385 11.9333
0 24 4 12.1207 3.9705
0 24 6 2.8756 6.8759
0 26 0 2.0972 -0.0600
0 26 2 -8.2247 8.0600
1 1 2 1.6873 -14.1821
1 1 3 0.8762 -0.4515
1 1 4 6.9912 -1.1670
1 1 5 -1.0766 0.4234
1 1 6 2.5354 1.9589
1 1 7 0.2814 0.8017
1 3 2 -21.1990 8.1132
1 3 3 -2.8028 5.1797
1 3 4 1.6668 -2.6136
1 3 5 0.1863 0.6306
1 3 6 3.8416 0.5721
1 3 7 0.7088 0.5922
1 3 8 2.0402 2.9055
1 5 0 40.3289 -0.0329
1 5 1 5.0790 -12.0126
1 5 2 -13.9228 21.1747
1 5 3 -5.5754 8.2919
1 5 4 11.4911 -7.0911
1 5 5 0.9084 2.4666
1 5 6 1.2400 -0.7799
1 5 7 0.7522 -0.0257
1 7 0 -17.5333 -0.0239
1 7 1 2.6540 -10.3723
1 7 2 26.1593 -16.7728
1 7 3 0.6777 4.7071
1 7 4 10.7435 -2.0543
1 7 5 0.2837 4.4881
1 7 6 -0.5260 -3.5011
1 7 7 -1.1877 -1.4176
1 9 0 -27.8995 -0.0080
1 9 1 4.2020 -13.9095
1 9 2 37.2245 -47.1904
1 9 3 6.9227 6.6063
1 9 4 -2.0567 4.0931
1 9 5 0.4100 2.8564
1 9 6 -1.1071 -4.1288
1 11 0 -16.4839 0.0078
1 11 1 3.5281 -7.6888
1 11 2 8.8266 -12.8385
1 11 3 7.1224 5.9778
1 11 4 -2.3303 0.4079
1 11 5 -3.3008 0.6738
1 11 6 -1.0421 -5.0933
1 13 0 -9.1891 -0.0046
1 13 1 -2.4242 7.0027
1 13 2 -8.0457 20.6213
1 13 3 1.9452 0.9742
1 13 4 2.6709 -3.3943
1 13 5 -3.3366 -0.9975
1 13 6 -3.8551 -6.5074
1 13 7 0.8865 1.3983
1 15 0 -0.4605 -0.0048
1 15 1 -6.5885 7.0624
1 15 2 -0.5036 3.7676
1 15 3 -1.7417 -2.3415
1 15 4 0.7822 -0.0776
1 15 5 -0.0459 -1.8099
1 15 6 -2.2739 -2.1308
1 15 7 -1.6468 1.4197
1 17 0 2.2134 0.0016
1 17 1 -4.3653 -6.8666
1 17 2 6.1332 -11.2615
1 17 3 -1.8966 -3.4427
1 17 4 5.4607 1.2327
1 17 5 0.2789 -0.4694
1 17 6 1.4839 0.1037
1 17 7 -1.4980 1.8801
1 19 0 2.7141 0.0006
1 19 1 -0.8474 -13.2497
1 19 2 4.1988 0.5535
1 19 3 -1.9297 -1.9190
1 19 4 18.0530 0.2784
1 19 5 0.0315 0.2492
1 19 6 -3.2154 -3.4188
1 19 7 -1.3124 1.4619
1 21 0 4.7029 -0.0016
1 21 1 1.3816 -6.8465
1 21 2 9.2020 7.8396
1 21 3 -2.3865 -0.5196
1 21 4 15.4343 3.0773
1 21 5 -1.6452 -1.4818
1 21 6 -1.5985 0.7735
1 21 7 -0.8224 0.4731
1 23 0 0.1590 0.0010
1 23 1 4.3619 -3.2528
1 23 2 12.0127 9.2612
1 23 3 -4.4350 1.2825
1 23 4 9.9527 3.3881
1 23 5 -1.8982 -3.6863
1 23 6 2.9962 7.6660
1 23 7 -0.2570 0.1028
1 25 0 0.6657 -0.0100
1 25 1 4.2122 -1.3792
1 25 2 -2.8356 9.3718
1 25 3 -3.8241 1.8155
1 25 5 -0.1241 -3.1879
1 27 0 1.6936 -0.0854
1 27 1 0.7798 1.6789
1 27 2 -7.6990 4.1579
2 0 2 8.5628 -0.8547
2 0 4 5.9698 -1.6752
2 0 6 1.1447 2.7466
2 0 8 0.6258 -3.1228
2 2 0 85.1008 0.2850
2 2 1 9.1260 -2.7451
2 2 2 -4.4132 3.6707
2 2 3 0.5617 1.7719
2 2 4 1.4272 -1.3242
2 2 5 -1.5646 0.6313
2 2 6 2.5416 1.1697
2 2 7 0.9049 1.3734
2 2 8 0.1649 0.5718
2 2 9 1.2972 -0.5406
2 4 0 54.9971 -0.0199
2 4 1 10.1384 -19.3956
2 4 2 -15.1044 15.8402
2 4 3 -8.9599 12.8758
2 4 4 3.9023 -5.1735
2 4 5 1.4749 1.2241
2 4 6 2.6802 0.6638
2 4 7 1.7747 -0.2195
2 4 8 1.2860 0.6824
2 4 9 -1.5525 0.7226
2 6 0 -1.6119 -0.0325
2 6 1 4.9133 -18.3667
2 6 2 5.3915 4.4170
2 6 3 -6.3951 8.4193
2 6 4 10.8664 -5.5313
2 6 5 -0.0668 5.5092
2 6 6 1.9956 0.2393
2 6 7 0.0811 -0.8650
2 6 8 -0.0755 -3.1195
2 6 9 0.7808 -1.2891
2 8 0 -26.6885 -0.0045
2 8 1 4.8009 -18.8460
2 8 2 27.8380 -29.2415
2 8 3 6.0307 5.5655
2 8 4 5.0203 0.7972
2 8 5 1.1569 6.0019
2 8 6 0.5244 -0.9361
2 8 7 -3.9424 -4.4053
2 8 8 -1.3836 -0.7774
2 8 9 1.1180 -0.8264
2 10 0 -18.1019 0.0086
2 10 1 6.8547 -20.9033
2 10 2 17.4748 -25.7467
2 10 3 12.4022 9.2950
2 10 4 -0.4649 1.9381
2 10 5 -1.3719 2.9352
2 10 6 0.0439 -0.7934
2 10 7 -0.9976 -4.5961
2 10 8 0.5880 -0.6203
2 12 0 -9.4233 0.0001
2 12 1 -0.3470 1.2649
2 12 2 -3.7233 8.1083
2 12 3 8.3318 3.2758
2 12 4 2.2539 -0.5879
2 12 5 -6.6125 1.1539
2 12 6 0.1943 -3.4494
2 12 7 2.3650 0.8389
2 14 0 -3.7955 -0.0072
2 14 1 -10.8697 17.5854
2 14 2 -5.7484 14.2800
2 14 3 -0.0508 -2.8267
2 14 4 2.9212 -0.6316
2 14 5 -2.3664 -1.4187
2 14 6 -2.3060 -4.2182
2 14 7 -1.4976 1.6163
2 16 0 1.5226 0.0108
2 16 1 -10.7758 3.0025
2 16 2 2.4997 -2.7741
2 16 3 -2.8557 -5.1771
2 16 4 0.9448 1.4100
2 16 5 0.1829 -1.7687
2 16 6 -0.3229 -1.8520
2 16 7 -2.5831 1.4565
2 16 8 -0.0539 -5.2364
2 18 0 1.0331 0.0005
2 18 1 -3.0218 -17.6432
2 18 2 5.6408 -4.0186
2 18 3 -3.4206 -3.6533
2 18 4 7.8721 0.9702
2 18 5 0.2469 -0.0270
2 18 6 -1.7023 -3.6212
2 18 7 -1.5303 2.3452
2 20 0 2.7110 -0.0066
2 20 1 1.3246 -15.1121
2 20 2 6.9486 1.5000
2 20 3 -3.5722 -0.8522
2 20 4 13.4694 2.0148
2 20 5 -0.3589 -0.9440
2 20 6 -4.1684 -2.4118
2 20 7 -1.5185 1.0238
2 22 0 2.6195 -0.0013
2 22 1 5.1977 -5.7141
2 22 2 10.7378 1.5741
2 22 3 -5.2674 0.6719
2 22 4 9.3745 3.0916
2 22 5 -2.8631 -4.3113
2 22 6 0.7957 5.9975
2 22 7 -0.7669 0.1968
2 24 0 -0.0606 0.0173
2 24 1 8.3276 -4.8972
2 24 2 3.4214 4.9911
2 24 3 -7.3838 3.1326
2 24 4 10.5051 1.6234
2 24 5 -0.9706 -5.7942
2 24 6 1.6079 7.6161
2 26 0 1.6021 -0.0083
2 26 1 4.1510 0.2897
2 26 2 -7.4277 4.6448
2 26 3 -3.1557 1.6649
3 1 0 75.1916 0.3524
3 1 1 4.8331 1.5176
3 1 2 7.5567 12.7860
3 1 3 2.9833 -2.1825
3 1 4 1.7443 -0.2593
3 1 5 -1.8413 0.4658
3 1 6 0.4565 2.3965
3 1 7 0.5305 1.1501
3 1 8 0.1508 -2.8423
3 1 9 1.6127 -0.8090
3 1 10 1.9182 -1.4409
3 3 0 55.6179 0.0039
3 3 1 10.1656 -14.7923
3 3 2 -3.7237 9.6378
3 3 3 -4.1579 7.6055
3 3 4 0.1475 -1.7679
3 3 5 0.1814 -0.6116
3 3 6 1.6586 0.2524
3 3 7 1.9474 -0.1414
3 3 8 -0.6897 0.8723
3 3 9 -0.9236 0.7063
3 3 10 1.4536 0.2265
3 5 0 9.4684 -0.0521
3 5 1 6.7134 -25.2847
3 5 2 -2.1586 7.8277
3 5 3 -12.7388 11.0855
3 5 4 4.5933 -5.3564
3 5 5 0.0803 1.8111
3 5 6 3.1839 2.0968
3 5 7 2.2573 -1.3027
3 5 8 -0.3440 -0.9112
3 5 9 -1.6921 0.5626
3 5 10 -0.6675 -0.2550
3 7 0 -20.3915 0.0176
3 7 1 3.3207 -16.8268
3 7 2 10.1821 -7.3832
3 7 3 -3.0544 0.3285
3 7 4 6.8766 -2.3189
3 7 5 -0.6241 5.7727
3 7 6 3.3786 2.5415
3 7 7 -3.0741 -2.2697
3 7 8 -2.1470 -1.8166
3 7 9 1.9881 -1.6814
3 7 10 1.3027 0.0410
3 9 0 -17.4446 0.0176
3 9 1 6.0262 -22.4130
3 9 2 12.9370 -16.6658
3 9 3 9.3099 3.5997
3 9 4 4.4181 -0.0336
3 9 5 2.2068 4.1660
3 9 6 0.3560 2.7777
3 9 7 -5.5319 -4.7409
3 9 8 -0.3499 -1.2824
3 9 9 -1.4211 0.4375
3 9 10 0.5985 0.9050
3 11 0 -7.5299 0.0065
3 11 1 2.2463 -11.8580
3 11 2 1.8891 -3.2861
3 11 3 12.2788 3.0092
3 11 4 2.4002 0.5147
3 11 5 -4.0122 3.9247
3 11 6 1.6495 1.5372
3 11 7 0.0922 -0.6761
3 11 8 1.0330 -3.0973
3 11 9 -2.5582 0.3593
3 13 0 -3.6622 -0.0141
3 13 1 -11.3917 16.8299
3 13 2 -5.9938 10.0741
3 13 3 5.3430 -4.1407
3 13 4 2.2327 1.1382
3 13 5 -4.9457 2.8336
3 13 6 1.3594 -2.4441
3 13 7 -0.3421 1.3837
3 13 8 0.5041 -3.1554
3 15 0 0.1133 0.0104
3 15 1 -16.9657 18.4839
3 15 2 -3.2469 6.9126
3 15 3 -1.1737 -5.4927
3 15 4 0.4348 0.6603
3 15 5 -0.4987 -0.7409
3 15 6 -1.4801 -3.5264
3 15 7 -3.0363 -1.1219
3 15 8 1.2073 -5.5047
3 17 0 2.0842 0.0125
3 17 1 -7.2211 -5.4237
3 17 2 3.1723 -0.1060
3 17 3 -3.6077 -3.9431
3 17 4 -0.1468 1.1349
3 17 5 -0.6637 -0.9497
3 17 6 -1.9205 -4.6687
3 17 7 -0.9504 0.2404
3 17 8 0.6198 -5.7276
3 19 0 0.6332 -0.0091
3 19 1 1.6449 -15.7823
3 19 2 8.5174 -2.1880
3 19 3 -4.8128 0.2721
3 19 4 5.2321 1.3820
3 19 5 1.0948 -0.7037
3 19 6 -4.6398 -4.3728
3 19 7 -0.7463 0.6883
3 21 0 2.0934 -0.0059
3 21 1 4.3398 -6.3147
3 21 2 10.7516 -6.3497
3 21 3 -4.0296 1.1803
3 21 4 7.7567 2.5636
3 21 5 -0.5026 -2.6936
3 21 6 -2.3389 3.3339
3 21 7 -0.7851 -0.2166
3 23 0 0.9046 0.0152
3 23 1 8.6386 -5.3322
3 23 2 7.1432 -4.4983
3 23 3 -6.2614 2.1474
3 23 4 8.5600 1.0020
3 23 5 -1.3797 -5.0308
3 23 6 1.0435 9.1296
3 23 7 -1.0319 -0.3431
3 25 0 -0.1993 0.0305
3 25 1 7.8549 -4.5905
3 25 2 -2.2129 1.5561
3 25 3 -5.2427 3.1047
3 25 4 8.7457 -0.1959
3 25 5 1.0900 -3.8789
3 27 1 1.4209 1.9670
3 27 2 -4.6227 0.7994
4 0 0 58.4740 0.2547
4 0 2 9.8452 18.6635
4 0 4 0.5448 2.6269
4 0 6 -0.7001 3.3070
4 0 8 1.3405 -2.6371
4 0 10 1.2428 -0.1516
4 2 0 48.1249 0.0151
4 2 1 5.8925 -3.5297
4 2 2 5.3649 10.5789
4 2 3 2.0850 -1.3340
4 2 4 0.3727 2.2476
4 2 5 -0.9814 -0.6802
4 2 6 -0.3424 0.3743
4 2 7 1.2561 0.3815
4 2 8 -0.4527 -0.6282
4 2 9 0.6420 -0.4789
4 2 10 1.1176 1.0347
4 2 11 -1.1433 -0.1742
4 4 0 14.0757 -0.0956
4 4 1 6.1228 -23.4667
4 4 2 1.8384 2.5998
4 4 3 -10.4377 8.2753
4 4 4 0.3859 -1.8929
4 4 5 0.3350 -2.3322
4 4 6 1.4081 0.4196
4 4 7 3.1359 -2.0360
4 4 8 -1.0359 0.7046
4 4 9 -3.1414 1.6251
4 4 10 -0.3835 0.0424
4 4 11 2.9731 -1.1455
4 6 0 -13.9865 0.0175
4 6 1 2.4898 -17.8208
4 6 2 1.1149 0.9720
4 6 3 -12.3833 -1.5480
4 6 4 2.0453 -2.7613
4 6 5 -2.2558 1.8675
4 6 6 4.5541 3.7599
4 6 7 0.1820 -1.5301
4 6 8 -1.8954 -0.4324
4 6 9 0.2319 -0.3511
4 6 10 0.2651 -0.8726
4 6 11 0.0942 -1.9292
4 8 0 -13.1173 0.0338
4 8 1 2.8210 -12.6050
4 8 2 0.0317 0.2373
4 8 3 -0.5851 -6.7241
4 8 4 5.5523 -1.5046
4 8 5 1.7885 3.1956
4 8 6 2.0371 4.5212
4 8 7 -6.5834 -1.7423
4 8 8 -1.9761 -0.9131
4 8 9 0.4338 -0.9061
4 8 10 1.2289 1.4893
4 8 11 -1.6544 -0.3443
4 10 0 -4.7148 0.0121
4 10 1 2.3959 -15.8606
4 10 2 0.4755 1.2110
4 10 3 8.7185 -1.4589
4 10 4 4.5825 -1.9663
4 10 5 1.9960 3.6251
4 10 6 -0.2934 4.4982
4 10 7 -4.7861 0.0698
4 10 8 0.7807 -2.2565
4 10 9 -2.9114 0.5943
4 10 10 -1.6408 2.0748
4 10 11 -1.0435 0.0777
4 12 0 -0.8744 -0.0138
4 12 1 -8.9854 5.6256
4 12 2 -2.4085 1.4254
4 12 3 8.7698 -6.1536
4 12 4 -0.5139 1.5308
4 12 5 -3.2302 6.6331
4 12 6 2.9174 1.2148
4 12 7 -0.9155 2.2236
4 12 8 0.0062 -2.3873
4 12 9 0.6557 -0.9888
4 12 10 -1.8133 1.2905
4 14 0 0.0778 -0.0047
4 14 1 -20.1489 23.6165
4 14 2 -5.5785 4.9547
4 14 3 2.8331 -7.0003
4 14 4 -2.3010 1.1649
4 14 5 -0.7862 3.3966
4 14 6 0.4730 -2.2226
4 14 7 -2.6541 -2.4867
4 14 8 -0.0174 -3.0080
4 14 9 3.9255 -3.3276
4 16 0 3.1016 0.0176
4 16 1 -13.5796 12.0398
4 16 2 -3.1250 5.9660
4 16 3 -2.0260 -3.3893
4 16 4 -3.3388 -0.1817
4 16 5 -0.9347 -0.5962
4 16 6 -2.9890 -4.6943
4 16 7 -0.9619 -4.0676
4 16 8 1.2422 -6.6232
4 18 0 2.7884 -0.0027
4 18 1 0.2874 -4.8840
4 18 2 6.6008 0.0514
4 18 3 -5.4886 1.3579
4 18 4 -2.3745 0.7847
4 18 5 -0.0674 -0.9178
4 18 6 -4.5935 -5.8455
4 18 7 0.7071 -1.6781
4 20 0 0.5725 -0.0066
4 20 1 4.3444 -3.5238
4 20 2 14.2797 -9.2351
4 20 3 -3.9363 4.1530
4 20 4 2.7063 1.2874
4 20 5 2.2762 -1.3041
4 20 6 -4.3244 0.5979
4 20 7 -0.0092 -1.4763
4 22 0 1.1592 0.0076
4 22 1 6.2146 -1.8510
4 22 2 11.4260 -13.1525
4 22 3 -1.9302 1.9373
4 22 4 7.2887 1.3634
4 22 5 0.1064 -2.1084
4 22 6 -0.3879 8.7376
4 22 7 -0.2732 -0.9141
4 24 0 -1.2200 0.0212
4 24 1 8.6862 -7.3340
4 24 2 4.2945 -5.3772
4 24 3 -3.1137 2.2267
4 24 4 8.4888 -1.0169
4 24 5 1.0865 -2.5377
4 24 6 0.0460 7.7876
4 26 0 -1.2390 0.0178
4 26 1 4.3263 -2.0129
4 26 2 -0.7403 -0.1151
4 26 3 -0.9399 1.7070
5 1 0 32.7507 0.0274
5 1 1 2.2959 1.8813
5 1 2 6.9393 9.9801
5 1 3 1.9873 -3.6701
5 1 4 0.8411 6.4623
5 1 5 -0.2045 0.1375
5 1 6 -1.2141 1.9227
5 1 7 0.3632 0.3495
5 1 8 1.5012 0.6328
5 1 9 0.7966 -0.8526
5 1 10 1.6928 1.3184
5 1 11 -1.6564 -0.0738
5 1 12 1.1117 0.7751
5 3 0 14.2180 -0.1058
5 3 1 4.1872 -10.9936
5 3 2 5.1099 -1.2005
5 3 3 -3.5697 0.7676
5 3 4 1.2061 3.1356
5 3 5 0.4813 -2.9333
5 3 6 -1.1343 -1.5662
5 3 7 2.3431 -1.2603
5 3 8 -0.6472 0.6173
5 3 9 -2.1402 0.2778
5 3 10 -0.1486 1.4611
5 3 11 0.6706 -0.2530
5 3 12 -0.1940 -0.5962
5 5 0 -9.6334 -0.0175
5 5 1 2.5658 -18.7577
5 5 2 2.5364 -1.8286
5 5 3 -13.5166 -0.5735
5 5 4 -1.7543 -1.0555
5 5 5 -1.5124 -2.3887
5 5 6 2.0333 1.2058
5 5 7 2.4279 -2.2642
5 5 8 -0.9984 1.0980
5 5 9 -2.1627 1.0572
5 5 10 -0.5382 -1.3906
5 5 11 2.0512 -1.5647
5 5 12 -1.7468 -1.0941
5 7 0 -8.7698 0.0315
5 7 1 1.2506 -6.6340
5 7 2 -7.1215 7.3221
5 7 3 -10.0896 -11.7881
5 7 4 0.5820 -0.6854
5 7 5 -0.4631 1.4151
5 7 6 3.5844 4.1544
5 7 7 -3.6919 -0.2740
5 7 8 -2.0882 0.6502
5 7 9 0.8849 -0.8014
5 7 10 0.6906 0.3746
5 7 11 -0.5275 -1.0502
5 7 12 -1.4341 -2.1967
5 9 0 -0.0269 0.0074
5 9 1 0.7058 -7.1522
5 9 2 -7.7848 13.2326
5 9 3 0.8567 -7.4831
5 9 4 4.9348 -3.3416
5 9 5 4.3660 1.4051
5 9 6 -0.9772 4.4614
5 9 7 -7.0157 2.8115
5 9 8 -0.5254 -0.2119
5 9 9 -2.1657 -0.3136
5 9 10 -0.8882 2.6299
5 9 11 0.1037 0.1746
5 9 12 -1.9015 -0.5496
5 11 0 1.8624 -0.0074
5 11 1 -5.6750 -2.2772
5 11 2 -1.1168 3.7582
5 11 3 6.7315 -5.9681
5 11 4 -1.0792 -1.8386
5 11 5 1.6910 5.4799
5 11 6 0.1039 2.8969
5 11 7 -3.2499 5.0147
5 11 8 -0.0143 -0.0853
5 11 9 -0.9757 0.1636
5 11 10 -1.9622 1.2476
5 11 11 -1.4871 -0.8147
5 13 0 1.9255 -0.0127
5 13 1 -17.7490 16.5175
5 13 2 -3.2600 -3.3491
5 13 3 5.3892 -8.1656
5 13 4 -7.4138 1.4145
5 13 5 0.6549 6.5262
5 13 6 2.0926 0.6090
5 13 7 -1.8699 -0.2690
5 13 8 -1.8186 0.2390
5 13 9 3.2766 -1.5528
5 13 10 0.1999 0.6745
5 13 11 -0.4121 0.5725
5 15 0 2.6252 0.0074
5 15 1 -18.4960 19.8648
5 15 2 -7.5218 3.8730
5 15 3 0.6926 -3.3169
5 15 4 -6.3931 -1.0142
5 15 5 0.8014 0.8684
5 15 6 -2.3449 -1.6386
5 15 7 -1.0085 -6.2354
5 15 8 -0.3241 -3.0526
5 15 9 5.4424 -5.2842
5 15 10 0.3511 0.7933
5 17 0 5.4055 0.0005
5 17 1 -4.6328 8.5072
5 17 2 -1.0852 3.9782
5 17 3 -5.0266 1.3556
5 17 4 -4.8996 -0.3230
5 17 5 -1.1969 -0.9679
5 17 6 -5.0168 -5.4144
5 17 7 1.1285 -4.9428
5 17 8 1.6441 -6.1049
5 17 9 6.7602 -7.7552
5 19 0 2.5144 -0.0047
5 19 1 3.5833 3.2244
5 19 2 13.5848 -6.5191
5 19 3 -5.2838 5.8366
5 19 4 -2.0034 0.3370
5 19 5 1.8019 -0.3301
5 19 6 -5.0182 -2.6396
5 19 7 0.5594 -3.3010
5 21 0 0.5362 0.0070
5 21 1 3.7171 2.3565
5 21 2 16.9942 -15.1137
5 21 3 0.8528 4.5542
5 21 4 4.2160 0.6622
5 21 5 1.9945 0.3664
5 21 6 -1.8458 6.3807
5 21 7 0.6276 -2.2487
5 23 0 -0.5590 0.0040
5 23 1 6.3520 -5.6234
5 23 2 9.9767 -11.6279
5 23 3 2.5570 1.0762
5 23 4 8.2277 0.3316
5 23 5 0.8408 0.4787
5 23 6 0.3036 8.8878
5 25 0 -3.3456 -0.0144
5 25 1 6.0306 -6.3196
5 25 2 5.4437 -2.7260
5 25 3 1.3730 1.0851
6 0 0 13.2015 0.0415
6 0 2 4.5526 2.0627
6 0 4 1.3069 9.7619
6 0 6 -0.9793 2.3138
6 0 8 1.9672 4.8980
6 0 10 3.6119 0.9793
6 0 12 1.4574 1.5244
6 2 0 9.0507 -0.0438
6 2 1 3.8397 -0.1001
6 2 2 3.7630 -3.4923
6 2 3 -1.2121 -3.6895
6 2 4 2.7457 7.4968
6 2 5 1.4542 -0.3673
6 2 6 -1.7591 -0.7529
6 2 7 0.8211 -0.1847
6 2 8 0.6270 2.0417
6 2 9 -0.5924 -1.1814
6 2 10 1.0892 2.0252
6 2 11 -1.0862 0.0036
6 2 12 0.6172 0.5183
6 4 0 -5.3022 -0.0227
6 4 1 3.2891 -11.3548
6 4 2 4.3102 -6.1087
6 4 3 -7.3111 -1.1975
6 4 4 -0.0448 1.5701
6 4 5 0.2409 -3.5475
6 4 6 -1.5289 -2.1915
6 4 7 2.3375 -1.5692
6 4 8 -0.1177 0.7230
6 4 9 -2.6772 0.1475
6 4 10 -1.0303 -0.1878
6 4 11 1.5706 -0.2684
6 4 12 -1.8839 -1.1095
6 6 0 -7.5778 0.0136
6 6 1 2.3708 -8.3387
6 6 2 -3.8894 3.7239
6 6 3 -12.1088 -9.0794
6 6 4 -3.8174 0.0827
6 6 5 -0.0010 -0.1035
6 6 6 1.8781 1.2917
6 6 7 -0.7207 -1.3454
6 6 8 -0.6088 1.9069
6 6 9 -0.0219 0.2367
6 6 10 -0.2211 -1.3018
6 6 11 0.6400 -1.0305
6 6 12 -1.9736 -2.7560
6 8 0 3.6528 -0.0113
6 8 1 0.2514 0.3139
6 8 2 -12.9430 16.4278
6 8 3 -5.4372 -10.0825
6 8 4 0.7008 -1.3024
6 8 5 3.4411 1.0452
6 8 6 0.7991 3.0354
6 8 7 -5.1641 3.2595
6 8 8 -0.9537 1.5192
6 8 9 -0.9289 -0.7968
6 8 10 -0.8738 1.9131
6 8 11 0.4013 0.3127
6 8 12 -0.9828 -2.0508
6 10 0 4.6590 -0.0104
6 10 1 -3.6536 0.5531
6 10 2 -4.9218 13.1387
6 10 3 3.0940 -3.3740
6 10 4 -0.2242 -4.3768
6 10 5 3.9941 1.4861
6 10 6 -2.0109 1.7349
6 10 7 -4.2556 8.0789
6 10 8 -0.3403 2.7625
6 10 9 -2.0583 -0.0217
6 10 10 -2.1025 1.2314
6 10 11 -0.6595 -0.6426
6 10 12 -1.5746 1.2379
6 12 0 3.3203 -0.0052
6 12 1 -10.8640 7.9095
6 12 2 -0.2557 -3.4916
6 12 3 4.4680 -4.6486
6 12 4 -9.4523 -1.0751
6 12 5 2.6834 4.9971
6 12 6 0.5675 1.3459
6 12 7 -1.3710 4.4266
6 12 8 -2.2457 3.7992
6 12 9 1.3267 0.6709
6 12 10 -0.2698 0.2082
6 12 11 -1.5117 -1.4930
6 12 12 0.0718 1.1842
6 14 0 2.5691 0.0016
6 14 1 -16.6581 16.1485
6 14 2 -7.1368 -3.8686
6 14 3 2.5059 -2.6905
6 14 4 -10.6592 -0.9754
6 14 5 2.9338 1.2400
6 14 6 -0.6431 2.8163
6 14 7 0.1731 -3.7760
6 14 8 -2.6219 1.4071
6 14 9 3.2555 -2.0432
6 14 10 1.8778 0.6741
6 14 11 2.2143 0.7440
6 16 0 4.1248 -0.0044
6 16 1 -9.6741 13.5526
6 16 2 -8.4443 2.9568
6 16 3 -3.2567 1.4003
6 16 4 -5.1037 -1.3479
6 16 5 0.4732 -2.0392
6 16 6 -4.5317 -0.7827
6 16 7 1.2274 -5.6961
6 16 8 0.1433 -2.8594
6 16 9 5.9172 -5.8036
6 18 0 4.9979 -0.0070
6 18 1 0.1185 9.1758
6 18 2 4.8713 -2.5662
6 18 3 -6.6467 4.1439
6 18 4 -1.7128 0.3907
6 18 5 0.1747 0.2578
6 18 6 -5.2604 -4.4620
6 18 7 0.2415 -4.2756
6 18 8 1.8708 -4.4087
6 20 0 1.4364 0.0075
6 20 1 1.1052 5.8117
6 20 2 17.1976 -10.9626
6 20 3 0.3002 5.9017
6 20 4 1.3138 -0.2709
6 20 5 1.6207 1.9736
6 20 6 -2.8860 1.4977
6 20 7 0.1889 -3.4154
6 22 0 0.5760 0.0013
6 22 1 2.5070 -2.7440
6 22 2 13.7568 -11.8716
6 22 3 7.0927 2.1631
6 22 4 5.6891 1.0099
6 22 5 0.5199 2.9258
6 22 6 0.3571 7.2790
6 24 0 -2.4816 -0.0383
6 24 1 5.2634 -7.6367
6 24 2 8.8303 -4.9746
6 24 3 6.1745 -0.3450
6 24 4 5.3724 0.5804
6 26 1 3.3934 -2.0146
6 26 3 2.3755 0.2284
7 1 0 0.9317 0.0089
7 1 1 3.6382 1.1453
7 1 2 1.7156 -5.6419
7 1 3 -2.4339 -2.2013
7 1 4 2.3898 9.7564
7 1 5 2.0483 1.6495
7 1 6 -0.6884 0.8099
7 1 7 -0.1704 -0.0782
7 1 8 0.4848 6.4601
7 1 9 -0.0403 -0.9245
7 1 10 3.8670 0.9607
7 1 11 -0.6272 -0.1964
7 1 12 1.0942 1.1388
7 3 0 -1.3279 0.0235
7 3 1 5.1651 -1.4651
7 3 2 2.3157 -7.2037
7 3 3 -2.7813 -2.5018
7 3 4 2.7556 3.8106
7 3 5 2.0693 -0.6566
7 3 6 -2.4281 -2.2428
7 3 7 0.8034 0.0128
7 3 8 0.3540 0.3459
7 3 9 -1.5151 -1.4800
7 3 10 -0.8934 1.3082
7 3 11 0.3711 0.2697
7 3 12 -1.3277 -0.3785
7 5 0 -6.1018 0.0232
7 5 1 4.0141 -7.0319
7 5 2 1.3789 -1.3092
7 5 3 -5.4392 -4.5579
7 5 4 -2.3604 -0.4189
7 5 5 2.0859 -1.0338
7 5 6 -1.6015 -2.2211
7 5 7 0.0890 -1.4194
7 5 8 0.5213 1.2512
7 5 9 -0.7527 -0.0511
7 5 10 -1.0423 -1.4198
7 5 11 0.7754 -0.0865
7 5 12 -3.1973 -2.6439
7 7 0 2.2625 -0.0219
7 7 1 2.3914 -2.2240
7 7 2 -8.7907 9.2599
7 7 3 -6.3687 -7.4041
7 7 4 -3.3737 0.2768
7 7 5 4.4984 2.4165
7 7 6 1.2155 1.0188
7 7 7 -2.5547 0.2130
7 7 8 0.1190 2.0298
7 7 9 -0.1742 0.0895
7 7 10 -1.0413 0.2277
7 7 11 0.3348 0.1165
7 7 12 -0.9007 -3.1511
7 9 0 6.7087 -0.0221
7 9 1 -2.6141 5.6495
7 9 2 -8.6644 14.4904
7 9 3 1.9771 -0.8371
7 9 4 -1.0929 -2.4991
7 9 5 3.2059 0.0871
7 9 6 -0.2392 0.4329
7 9 7 -2.5695 7.6986
7 9 8 -0.4363 3.4973
7 9 9 -1.8072 -0.7229
7 9 10 -1.9886 0.7977
7 9 11 -0.4135 0.2878
7 9 12 -0.7272 -0.0925
7 11 0 3.4492 0.0014
7 11 1 -4.9812 6.8414
7 11 2 -0.2863 4.0687
7 11 3 3.7869 2.4723
7 11 4 -7.0308 -3.2967
7 11 5 2.1668 0.5391
7 11 6 -0.9225 -0.9592
7 11 7 -0.7348 8.4791
7 11 8 -1.8964 6.5904
7 11 9 0.0532 0.9727
7 11 10 -1.2423 -0.6511
7 11 11 -2.8281 -1.9591
7 11 12 -0.3124 1.6586
7 13 0 3.0417 0.0092
7 13 1 -7.9819 9.2816
7 13 2 -4.2133 -5.3527
7 13 3 1.8398 0.9556
7 13 4 -11.9706 -1.7004
7 13 5 3.1631 -0.2733
7 13 6 -0.1846 4.1976
7 13 7 1.7235 1.0072
7 13 8 -3.2516 4.9596
7 13 9 0.9103 1.0927
7 13 10 1.2022 0.9133
7 13 11 -0.1522 -1.0549
7 15 0 1.9128 -0.0042
7 15 1 -8.7030 10.1767
7 15 2 -10.7056 -1.5150
7 15 3 -0.7232 2.5227
7 15 4 -6.1571 -1.7882
7 15 5 2.5030 -4.4469
7 15 6 -2.4738 6.2305
7 15 7 2.6160 -2.7289
7 15 8 -1.6113 1.0092
7 15 9 2.3827 -2.6560
7 15 10 2.1326 0.5639
7 17 0 3.1340 -0.0116
7 17 1 -3.3681 8.7489
7 17 2 -5.1320 -1.4079
7 17 3 -6.1345 2.4185
7 17 4 1.6797 0.5233
7 17 5 0.9867 -1.2534
7 17 6 -4.3548 -1.1162
7 17 7 0.2247 -2.6801
7 17 8 0.9074 -1.7638
7 19 0 2.4919 0.0043
7 19 1 -1.9909 7.3427
7 19 2 8.5106 -5.8598
7 19 3 -1.9360 2.9767
7 19 4 3.2702 0.1620
7 19 5 0.1819 2.9677
7 19 6 -3.5074 -3.3626
7 19 7 -1.1412 -2.9491
7 19 8 1.2989 -2.3576
7 21 0 1.4542 0.0042
7 21 1 -1.8029 -0.3222
7 21 2 12.1609 -6.6988
7 21 3 7.9008 2.7938
7 21 4 2.5658 0.2586
7 21 5 -0.6213 3.8865
7 21 6 -0.1979 2.3278
7 23 0 0.3546 -0.0280
7 23 1 2.2753 -6.9678
7 23 2 7.7626 -3.5610
7 23 3 10.0713 -0.4341
7 23 4 3.0176 2.3659
7 25 0 -2.4844 -0.0821
7 25 1 3.5767 -3.5119
7 25 2 6.9955 -0.5560
7 25 3 5.5741 -0.9761
8 0 0 -1.8565 -0.0363
8 0 2 0.4388 -5.2350
8 0 4 1.5334 9.1379
8 0 6 0.3875 0.6112
8 0 8 -1.2713 9.0733
8 0 10 5.4368 0.0265
8 0 12 0.7803 0.6533
8 2 0 0.5270 0.0247
8 2 1 6.5879 0.2008
8 2 2 0.3827 -4.9344
8 2 3 -3.8936 -1.5002
8 2 4 2.3689 4.8687
8 2 5 3.6814 3.3984
8 2 6 -0.8536 -0.0116
8 2 7 -0.6164 0.2442
8 2 8 -0.2590 2.6892
8 2 9 -0.3213 -1.4631
8 2 10 0.7218 1.3514
8 2 11 0.2705 -0.2029
8 2 12 -0.4297 0.0198
8 4 0 -1.4287 0.0524
8 4 1 4.6690 -0.3175
8 4 2 2.4742 -2.0397
8 4 3 2.1145 -2.4233
8 4 4 0.9269 -1.1880
8 4 5 3.2145 0.0083
8 4 6 -2.6959 -2.6235
8 4 7 -0.6102 0.2517
8 4 8 0.5599 -0.5447
8 4 9 -0.4743 -1.3129
8 4 10 -2.1812 0.0625
8 4 11 0.3852 0.5729
8 4 12 -3.5986 -1.9866
8 6 0 -1.0474 -0.0029
8 6 1 4.2855 -5.6427
8 6 2 -0.8270 1.8908
8 6 3 -0.5934 -3.1405
8 6 4 -2.4098 -0.9257
8 6 5 7.1365 2.3758
8 6 6 -0.6490 -1.4301
8 6 7 -1.6510 -2.1933
8 6 8 0.7076 1.6106
8 6 9 -0.0812 0.6974
8 6 10 -1.0225 -0.7364
8 6 11 -0.0836 0.2986
8 6 12 -2.2808 -3.3893
8 8 0 4.9268 -0.0204
8 8 1 -0.3997 2.6436
8 8 2 -6.2711 5.5807
8 8 3 2.8395 0.5686
8 8 4 -2.0998 0.0540
8 8 5 4.4487 1.9086
8 8 6 1.9360 0.7582
8 8 7 -0.4257 2.9622
8 8 8 0.3025 1.6778
8 8 9 -1.1998 0.0432
8 8 10 -1.3764 0.2237
8 8 11 -0.2594 0.3879
8 8 12 0.1475 -1.4353
8 10 0 3.3435 0.0020
8 10 1 -3.5109 10.6424
8 10 2 -2.0414 5.9008
8 10 3 6.6478 6.7809
8 10 4 -3.4166 -1.5903
8 10 5 -0.5856 -2.2685
8 10 6 0.7513 -2.7343
8 10 7 0.8120 9.0149
8 10 8 -1.5171 5.8645
8 10 9 0.0659 -0.2445
8 10 10 -0.7759 -1.7395
8 10 11 -3.1799 -0.9426
8 10 12 -0.7320 1.2456
8 12 0 2.3292 0.0146
8 12 1 0.0826 7.0516
8 12 2 -1.9813 0.7497
8 12 3 0.9706 6.3830
8 12 4 -8.2107 -1.9803
8 12 5 0.8908 -2.5420
8 12 6 -0.3325 0.7379
8 12 7 2.2289 4.6425
8 12 8 -2.5408 6.7320
8 12 9 0.6934 1.7742
8 12 10 -0.3671 0.1160
8 12 11 -3.1283 -1.9100
8 14 0 2.0870 0.0034
8 14 1 -0.8307 5.1111
8 14 2 -8.9311 -1.3467
8 14 3 0.2590 4.1855
8 14 4 -6.6064 -2.0014
8 14 5 1.8142 -5.7507
8 14 6 -0.6482 9.6676
8 14 7 4.1987 0.9190
8 14 8 -1.7349 3.3313
8 14 9 -0.4845 0.1023
8 14 10 1.3855 1.9549
8 16 0 0.1193 -0.0099
8 16 1 -2.2958 3.6662
8 16 2 -9.4238 -1.6919
8 16 3 -2.6106 2.8508
8 16 4 2.7473 -0.0715
8 16 5 2.4270 -4.5539
8 16 6 -1.5346 6.4551
8 16 7 1.5678 0.9730
8 16 8 0.1900 1.0578
8 18 0 0.6147 0.0032
8 18 1 -3.3415 4.4713
8 18 2 -2.0120 -2.8827
8 18 3 -2.9530 -0.1731
8 18 4 8.4464 0.7823
8 18 5 0.9648 2.2886
8 18 6 -2.5740 -3.0510
8 18 7 -1.7171 -0.5053
8 18 8 1.1095 -0.3627
8 20 0 1.4836 0.0034
8 20 1 -5.2170 1.9630
8 20 2 3.8989 -1.1337
8 20 3 6.2759 -0.1033
8 20 4 4.1713 -0.4015
8 20 5 -2.0821 3.9451
8 20 6 -1.1525 -3.3998
8 20 7 -0.4291 -1.3807
8 22 0 2.1502 -0.0060
8 22 1 -1.8977 -4.9038
8 22 2 2.7691 1.0088
8 22 3 10.9219 -0.0958
8 22 4 -0.5961 2.0208
8 22 5 -1.3766 3.2274
8 24 0 0.0689 -0.0406
8 24 1 1.8546 -3.6156
8 24 2 3.0157 1.2246
8 24 3 7.8147 -1.4327
8 24 4 -0.6767 3.0027
9 1 0 2.6681 -0.0739
9 1 1 4.4369 -2.4683
9 1 2 -0.6826 -1.2417
9 1 3 -4.4386 0.2554
9 1 4 0.8108 4.6909
9 1 5 3.1047 3.7815
9 1 6 0.6478 0.5515
9 1 7 -0.7523 -0.1649
9 1 8 -1.7213 5.6081
9 1 9 0.1758 -0.4816
9 1 10 2.8282 0.6294
9 1 11 0.5010 -0.4119
9 1 12 -0.1721 -0.2510
9 3 0 3.2213 0.0279
9 3 1 4.5469 1.7769
9 3 2 1.4616 0.7763
9 3 3 1.9183 -1.1783
9 3 4 0.8005 -1.6030
9 3 5 3.8585 3.1577
9 3 6 -1.0517 0.2412
9 3 7 -1.3163 0.9680
9 3 8 0.2057 -1.0510
9 3 9 0.3221 -1.4764
9 3 10 -2.8794 1.4352
9 3 11 0.4859 0.2026
9 3 12 -2.4954 -1.4138
9 5 0 -0.8274 0.0192
9 5 1 2.9298 -1.1041
9 5 2 3.4508 0.4112
9 5 3 7.3166 -1.3769
9 5 4 0.2727 -2.6097
9 5 5 7.2284 0.9988
9 5 6 -1.4243 -2.3771
9 5 7 -1.7988 -1.4765
9 5 8 -0.0204 0.8224
9 5 9 -0.0182 0.0367
9 5 10 -1.8592 -0.1561
9 5 11 -0.5659 0.8978
9 5 12 -3.6522 -2.9311
9 7 0 0.4022 -0.0022
9 7 1 2.2267 -4.0355
9 7 2 0.3846 -2.7071
9 7 3 4.8383 1.0911
9 7 4 -0.4965 -0.0488
9 7 5 8.2148 2.7352
9 7 6 1.7896 1.0791
9 7 7 0.0301 -1.9640
9 7 8 0.4563 0.2038
9 7 9 -1.2343 1.4790
9 7 10 -0.5969 0.1483
9 7 11 -0.3441 0.2840
9 7 12 -0.0487 -2.1132
9 9 0 2.3700 0.0083
9 9 1 -3.4683 10.0377
9 9 2 -1.2229 -1.5728
9 9 3 9.9321 5.4445
9 9 4 -0.2367 1.1837
9 9 5 -1.0225 -1.8136
9 9 6 3.1969 -0.6089
9 9 7 2.4123 5.5592
9 9 8 -0.7184 1.4102
9 9 9 0.0000 -0.2581
9 9 10 0.8278 -1.8188
9 9 11 -2.0620 -0.4789
9 9 12 -0.1700 0.3770
9 11 0 1.0172 0.0105
9 11 1 0.9606 10.1790
9 11 2 -1.1526 3.3025
9 11 3 3.6077 8.4350
9 11 4 -1.8953 0.4667
9 11 5 -2.3309 -4.2551
9 11 6 0.7670 -3.3683
9 11 7 2.1711 5.9522
9 11 8 -1.9611 4.9671
9 11 9 1.9469 0.2100
9 11 10 0.5201 -1.7975
9 11 11 -4.4052 -1.2749
9 13 0 2.3732 0.0044
9 13 1 6.8201 2.7315
9 13 2 -5.9608 4.4709
9 13 3 -1.2819 5.1990
9 13 4 -3.9004 -1.3211
9 13 5 -0.3864 -4.7424
9 13 6 -0.3527 6.2713
9 13 7 3.8677 2.3714
9 13 8 -0.5000 3.3355
9 13 9 -0.0783 0.8800
9 13 10 -0.6381 2.2576
9 15 0 1.0756 -0.0056
9 15 1 3.5443 -0.2354
9 15 2 -8.3781 1.0549
9 15 3 1.3104 2.7109
9 15 4 0.5317 -0.8799
9 15 5 1.0590 -5.8344
9 15 6 1.1724 11.5191
9 15 7 2.9771 3.5529
9 15 8 0.7288 2.4769
9 15 9 -0.4065 -1.0004
9 17 0 -1.4575 0.0083
9 17 1 -0.9448 -1.4702
9 17 2 -6.0221 -0.8241
9 17 3 -0.4778 -0.0536
9 17 4 9.4027 0.0349
9 17 5 3.0441 0.0140
9 17 6 0.7842 2.8227
9 17 7 -1.2303 2.4554
9 17 8 1.3589 1.5834
9 17 9 0.7965 -0.5326
9 19 0 0.0853 0.0042
9 19 1 -5.3793 1.6077
9 19 2 -4.5872 2.2181
9 19 3 4.6132 -3.3606
9 19 4 9.5276 -1.0922
9 19 5 -1.4131 3.6263
9 19 6 -0.7939 -4.8713
9 19 7 -1.1722 0.4342
9 19 8 0.5472 0.3244
9 21 0 2.2361 -0.0004
9 21 1 -5.2800 -0.7765
9 21 2 -4.6425 5.0414
9 21 3 10.0394 -1.7918
9 21 4 0.0978 0.2683
9 21 5 -2.9932 1.8491
9 21 6 0.3090 -3.2701
9 23 0 1.6534 0.0172
9 23 1 -1.0737 -2.2753
9 23 2 -2.9505 3.9126
9 23 3 7.6687 -0.8954
9 23 4 -3.7273 3.0246
10 0 0 6.5841 -0.1583
10 0 2 -2.9116 0.9895
10 0 4 0.7678 2.4098
10 0 6 0.8760 -0.1497
10 0 8 -1.9413 4.6452
10 0 10 2.5106 0.7574
10 2 0 5.5645 -0.0530
10 2 1 3.4876 -2.7960
10 2 2 -0.3273 2.7870
10 2 3 -3.5401 0.6429
10 2 4 -0.5791 -1.7148
10 2 5 3.9500 4.7085
10 2 6 0.4002 2.0221
10 2 7 -0.9965 0.3633
10 2 8 -0.1534 0.0839
10 2 9 0.8535 -0.6135
10 2 10 -1.9443 1.8123
10 2 11 0.7798 -0.3017
10 2 12 -1.1925 -1.0811
10 4 0 1.2242 0.0047
10 4 1 -0.1836 4.5083
10 4 2 3.6630 2.4945
10 4 3 8.2574 -1.2913
10 4 4 -0.4443 -3.3753
10 4 5 4.9582 0.8691
10 4 6 -0.1499 -0.2435
10 4 7 -1.4531 -0.0488
10 4 8 -0.4185 -0.1034
10 4 9 0.4477 -0.5599
10 4 10 -3.5483 1.1809
10 4 11 -0.5395 0.9635
10 4 12 -3.2321 -2.2208
10 6 0 -2.2182 0.0043
10 6 1 1.8356 -3.2358
10 6 2 4.8550 -3.8502
10 6 3 7.3761 0.5131
10 6 4 1.0751 -0.4216
10 6 5 9.3288 0.7955
10 6 6 1.4122 0.1976
10 6 7 -0.4936 -3.3329
10 6 8 -0.9416 1.0140
10 6 9 -1.5693 1.5906
10 6 10 -0.7118 0.5749
10 6 11 -0.8276 1.0479
10 6 12 -1.2397 -2.0334
10 8 0 -0.1688 0.0159
10 8 1 -1.3597 3.4244
10 8 2 2.8401 -8.3150
10 8 3 9.3970 1.9708
10 8 4 2.2943 1.4620
10 8 5 2.3318 -0.6148
10 8 6 3.6519 3.3645
10 8 7 2.4658 1.0218
10 8 8 -0.0735 -2.2853
10 8 9 -1.1259 1.2235
10 8 10 1.6628 -0.4957
10 8 11 -0.6432 -0.4423
10 10 0 0.4882 0.0059
10 10 1 -2.6492 12.7903
10 10 2 0.1302 -2.1541
10 10 3 8.2360 4.9084
10 10 4 3.7192 3.2387
10 10 5 -3.6741 -4.5596
10 10 6 2.2120 -2.5775
10 10 7 2.2291 5.4790
10 10 8 -1.3042 -0.0825
10 10 9 2.1940 -0.7488
10 10 10 3.2774 -2.7115
10 12 0 0.8461 -0.0043
10 12 1 6.8796 3.5458
10 12 2 -3.2392 7.3263
10 12 3 -2.0547 4.5449
10 12 4 1.5622 1.2288
10 12 5 -1.3136 -3.4647
10 12 6 -0.6615 0.0163
10 12 7 2.1136 2.4704
10 12 8 0.3445 0.6058
10 12 9 1.9711 -0.3247
10 14 0 3.4297 -0.0078
10 14 1 8.7168 -1.5656
10 14 2 -5.5624 6.6455
10 14 3 1.4120 0.2363
10 14 4 -1.0038 -0.7658
10 14 5 -1.4826 -3.4831
10 14 6 1.1605 9.5985
10 14 7 2.7903 3.1446
10 14 8 2.3018 1.3737
10 14 9 0.2137 -0.6222
10 16 0 0.9690 0.0110
10 16 1 3.4644 -5.0397
10 16 2 -3.9674 2.3114
10 16 3 4.1188 -0.1399
10 16 4 3.6960 -1.0861
10 16 5 2.4671 -1.2342
10 16 6 4.1105 7.9630
10 16 7 -0.7155 3.8072
10 16 8 2.1003 2.9829
10 18 0 -0.7957 0.0119
10 18 1 -1.9297 -2.9219
10 18 2 -5.7186 4.3491
10 18 3 4.5522 -2.9824
10 18 4 10.2710 -2.6163
10 18 5 1.6619 3.0458
10 18 6 2.1147 -1.0042
10 18 7 -1.7442 1.5574
10 18 8 1.3453 1.2674
10 20 0 1.7330 -0.0121
10 20 1 -5.4961 2.3345
10 20 2 -9.7674 7.0089
10 20 3 8.9668 -4.2138
10 20 4 5.1782 -1.8340
10 20 5 -3.5955 1.0576
10 20 6 0.2091 -4.4964
10 20 7 0.6128 0.7131
10 22 0 1.7331 0.0363
10 22 1 -3.6408 1.1635
10 22 2 -8.0726 5.3645
10 22 3 6.6996 -0.9485
10 22 4 -3.5781 1.2737
11 1 0 7.1189 -0.0807
11 1 1 1.4709 -4.4149
11 1 2 -4.1408 0.7507
11 1 3 -4.8581 1.4686
11 1 4 0.8556 -2.0805
11 1 5 2.1848 2.3116
11 1 6 0.2578 0.7582
11 1 7 -0.0569 0.1279
11 1 8 -0.1452 0.6290
11 1 9 0.7333 -0.1196
11 1 10 -0.5529 1.6121
11 1 11 0.5332 -0.1830
11 3 0 1.4025 -0.0202
11 3 1 -1.5929 2.4472
11 3 2 1.8336 2.8826
11 3 3 0.6057 0.0908
11 3 4 -2.4054 -4.1279
11 3 5 2.9650 1.2404
11 3 6 0.6078 2.5146
11 3 7 -0.1391 0.1985
11 3 8 0.2781 -0.9838
11 3 9 1.0484 -0.3412
11 3 10 -4.0891 2.1056
11 3 11 -0.0829 0.4301
11 5 0 -2.7494 -0.0093
11 5 1 -1.5020 3.7783
11 5 2 5.0518 -1.2443
11 5 3 6.5518 -0.4465
11 5 4 -0.9065 0.3506
11 5 5 6.0703 -1.3620
11 5 6 2.0603 0.0083
11 5 7 -0.1340 -2.4287
11 5 8 -2.1332 2.2263
11 5 9 -1.3430 0.7504
11 5 10 -1.9025 1.1072
11 5 11 -1.2054 1.7248
11 5 12 -1.8061 -1.5098
11 7 0 -2.5500 0.0070
11 7 1 0.9712 -1.0408
11 7 2 5.9434 -7.8271
11 7 3 5.6804 0.0945
11 7 4 2.1347 1.5241
11 7 5 4.9938 -0.9942
11 7 6 3.4638 4.7798
11 7 7 1.3360 -1.4289
11 7 8 -0.8456 -1.5597
11 7 9 -2.5942 1.9372
11 7 10 0.9349 0.8829
11 7 11 -0.2430 0.5710
11 9 0 0.0516 0.0027
11 9 1 -3.5985 9.8258
11 9 2 2.9902 -7.3682
11 9 3 9.2975 -0.1269
11 9 4 6.1505 2.8847
11 9 5 -2.1067 -3.5307
11 9 6 2.5401 2.7144
11 9 7 1.5991 4.3111
11 9 8 -0.1731 -4.1853
11 9 9 0.5933 0.1393
11 9 10 4.2875 -1.4110
11 11 0 -0.5065 -0.0122
11 11 1 0.9271 5.7116
11 11 2 -0.8286 3.0609
11 11 3 0.5464 2.0599
11 11 4 6.8948 3.6357
11 11 5 -0.4081 -3.1452
11 11 6 -0.6650 -2.4535
11 11 7 0.5451 3.2478
11 11 8 0.5997 -3.3602
11 11 9 2.5402 -1.5008
11 13 0 2.3867 -0.0112
11 13 1 7.9034 -2.5498
11 13 2 -2.7730 9.1945
11 13 3 -1.5029 -1.8377
11 13 4 0.8871 0.6045
11 13 5 -1.1583 -0.7049
11 13 6 -0.8131 3.7695
11 13 7 1.5263 1.5952
11 13 8 3.4494 -2.2061
11 15 0 5.4209 0.0060
11 15 1 5.8418 -4.6825
11 15 2 -1.2614 5.6635
11 15 3 6.3439 -3.5394
11 15 4 -2.6730 -1.0490
11 15 5 -0.7933 -0.1528
11 15 6 3.9451 7.6139
11 15 7 -0.4078 2.9405
11 15 8 3.1861 2.3392
11 17 0 1.7236 0.0177
11 17 1 1.9310 -7.2260
11 17 2 -0.8405 5.8876
11 17 3 6.1361 -1.6570
11 17 4 3.0268 -3.6534
11 17 5 3.3810 2.4576
11 17 6 5.2573 3.2729
11 17 7 -2.6518 1.3014
11 19 0 1.5579 -0.0236
11 19 1 -2.4254 0.2259
11 19 2 -7.6599 8.0493
11 19 3 7.5315 -3.9937
11 19 4 7.0120 -3.8964
11 19 5 -1.4032 1.6139
11 19 6 1.9502 -2.1445
11 21 0 2.0774 0.0035
11 21 1 -4.1118 4.6258
11 21 2 -10.0386 5.3294
11 21 3 6.3761 -2.1351
11 21 4 0.5433 -0.7078
12 0 0 6.7996 -0.0020
12 0 2 -6.8363 -3.1293
12 0 4 3.3564 -3.4630
12 0 6 -0.7274 -0.5478
12 0 8 0.6295 -0.2840
12 0 10 -0.6735 1.2453
12 2 0 1.3555 0.0053
12 2 1 -0.7415 -2.7922
12 2 2 -1.6541 -0.5887
12 2 3 -6.1459 2.3365
12 2 4 -0.8348 -4.7777
12 2 5 1.5106 -0.2759
12 2 6 -0.2752 2.3977
12 2 7 1.1552 0.3440
12 2 8 0.9800 -1.4048
12 2 9 1.2192 -0.1582
12 2 10 -2.8122 1.9629
12 2 11 0.2316 0.1586
12 4 0 -3.8794 -0.0081
12 4 1 -3.4267 6.2964
12 4 2 3.3243 -0.2354
12 4 3 0.1992 0.1933
12 4 4 -3.8572 -0.1334
12 4 5 2.0990 -2.3605
12 4 6 1.8199 1.5835
12 4 7 1.3566 -1.7373
12 4 8 -1.5958 1.4656
12 4 9 -0.4290 0.3314
12 4 10 -2.6789 1.5225
12 4 11 -1.0112 1.2323
12 6 0 -3.6731 -0.0098
12 6 1 0.6829 0.8141
12 6 2 5.2240 -4.0037
12 6 3 1.1106 0.1188
12 6 4 -1.4239 3.3781
12 6 5 3.6532 -2.1517
12 6 6 3.8335 3.5103
12 6 7 0.9954 -2.0883
12 6 8 -2.3321 1.3526
12 6 9 -3.1491 1.2980
12 6 10 -0.3057 1.1647
12 8 0 -1.0097 -0.0040
12 8 1 -0.6911 3.3605
12 8 2 5.1840 -6.1365
12 8 3 5.2340 -1.8205
12 8 4 3.7977 1.3540
12 8 5 -0.2016 -2.3822
12 8 6 2.8047 7.0051
12 8 7 0.1565 3.2863
12 8 8 0.2851 -3.8581
12 8 9 -1.5477 1.1126
12 8 10 2.5245 0.4911
12 10 0 -0.4120 -0.0133
12 10 1 -3.1532 5.8625
12 10 2 1.4209 -1.8774
12 10 3 3.6423 -0.6409
12 10 4 8.6598 2.9522
12 10 5 0.8477 -2.5469
12 10 6 -0.3129 0.4654
12 10 7 -0.9379 4.8005
12 10 8 1.1659 -5.1722
12 10 9 1.1874 -1.1606
12 12 0 -0.7558 -0.0080
12 12 1 2.2881 -3.4767
12 12 2 -0.4664 5.9624
12 12 3 -2.6978 -1.2142
12 12 4 4.5128 1.8488
12 12 5 2.1715 0.0836
12 12 6 -2.0399 -0.1207
12 12 7 0.3128 1.5673
12 12 8 3.5226 -5.4623
12 14 0 5.6891 0.0060
12 14 1 4.0358 -4.3460
12 14 2 -0.1581 6.3520
12 14 3 4.5624 -6.3373
12 14 4 -4.0564 -0.2101
12 14 5 -2.4337 1.1503
12 14 6 1.0571 3.9831
12 14 7 0.3415 1.4363
12 16 0 6.1638 0.0147
12 16 1 2.7679 -6.9939
12 16 2 2.6383 5.8377
12 16 3 7.6655 -3.5956
12 16 4 -5.1450 -2.7887
12 16 5 1.0659 1.8922
12 16 6 5.1093 3.8046
12 16 7 -2.5758 0.4782
12 18 0 2.3500 -0.0276
12 18 1 0.9075 -4.8628
12 18 2 -0.4605 8.2718
12 18 3 5.6879 -1.9069
12 18 4 1.7222 -4.8292
12 18 5 1.6585 2.1215
12 18 6 3.8987 0.8793
12 20 0 2.6543 -0.0481
12 20 1 -2.2082 4.0812
12 20 2 -6.9378 5.2548
12 20 3 5.5295 -2.6122
12 20 5 -2.7748 -0.9688
13 1 0 2.5994 0.0679
13 1 1 0.3554 -3.1992
13 1 2 -4.0518 -4.2544
13 1 3 -5.0195 2.4367
13 1 4 2.9446 -4.4828
13 1 5 0.3335 -1.7286
13 1 6 -1.5482 0.2811
13 1 7 1.0973 0.6385
13 1 8 1.1323 -0.9654
13 1 9 0.7167 -0.2327
13 1 10 -1.5210 0.8455
13 1 11 0.2016 0.2177
13 3 0 -4.1595 0.0223
13 3 1 -1.6599 1.9958
13 3 2 1.6178 -1.8490
13 3 3 -6.1103 2.3580
13 3 4 -3.2278 -2.0319
13 3 5 0.1892 -3.4263
13 3 6 0.0695 2.6714
13 3 7 2.3855 -0.9070
13 3 8 -0.4098 -0.3132
13 3 9 0.4718 0.1732
13 3 10 -2.1063 1.4695
13 5 0 -4.2065 -0.0067
13 5 1 -0.5278 3.4425
13 5 2 2.7254 -2.1084
13 5 3 -3.2912 0.9298
13 5 4 -4.6443 4.1654
13 5 5 0.7694 -2.5642
13 5 6 3.1891 2.6620
13 5 7 1.8791 -2.6207
13 5 8 -2.7273 2.0958
13 5 9 -2.3663 0.7104
13 5 10 -0.7536 0.8421
13 7 0 -1.8115 -0.0080
13 7 1 1.6797 -1.3283
13 7 2 4.0502 -2.0799
13 7 3 -0.0267 -0.2132
13 7 4 -1.3855 1.8118
13 7 5 -0.4078 -1.8034
13 7 6 3.7327 7.3351
13 7 7 -0.4417 1.9579
13 7 8 -0.5422 -0.9820
13 7 9 -2.7917 0.9327
13 9 0 0.0124 -0.0065
13 9 1 -1.9846 2.0393
13 9 2 2.4762 -1.6192
13 9 3 3.6059 -1.2161
13 9 4 5.3162 0.2605
13 9 5 0.6967 -1.3872
13 9 6 0.8497 4.7263
13 9 7 -2.5540 5.8066
13 9 8 1.6086 -3.5325
13 9 9 -0.4090 -0.1446
13 11 0 -1.9983 -0.0025
13 11 1 -1.9691 -3.5813
13 11 2 0.6778 1.6415
13 11 3 -1.0208 0.6048
13 11 4 6.1637 1.2882
13 11 5 4.8879 0.2577
13 11 6 -1.4926 -0.2200
13 11 7 -1.0932 3.0681
13 11 8 3.1161 -5.1227
13 13 0 1.4915 0.0153
13 13 1 0.0583 -6.0013
13 13 2 0.3740 3.7989
13 13 3 1.8517 -4.1832
13 13 4 -1.6073 0.1437
13 13 5 -0.2478 1.1146
13 13 6 -0.7645 1.3757
13 13 7 1.1333 0.9547
13 13 8 3.9899 -3.9804
13 15 0 7.6133 0.0163
13 15 1 0.4687 -4.4459
13 15 2 1.7721 3.7034
13 15 3 7.7129 -6.4406
13 15 4 -7.2194 -1.1009
13 15 5 -2.6813 0.9499
13 15 6 2.3241 2.0066
13 15 7 -0.6512 0.1077
13 17 0 4.0169 -0.0290
13 17 1 1.5902 -6.8193
13 17 2 4.0351 6.5833
13 17 3 4.5147 -1.6880
13 17 4 -4.5740 -3.8137
13 17 5 1.6874 1.2982
13 17 6 3.4925 1.7620
13 19 0 2.1761 -0.0820
13 19 1 0.2168 -0.2596
13 19 2 -0.6564 5.2713
13 19 3 3.1307 -1.3436
14 0 0 2.7891 0.0919
14 0 2 -1.8243 -3.3242
14 0 4 4.1659 -3.2335
14 0 6 -2.1848 -0.3562
14 0 8 0.9363 0.0569
14 0 10 -1.1741 -0.2717
14 2 0 -1.3620 0.0384
14 2 1 1.2299 -1.9336
14 2 2 1.1286 -2.6601
14 2 3 -6.2822 3.2485
14 2 4 0.1528 -2.5045
14 2 5 0.0126 -4.0095
14 2 6 -1.4683 1.8716
14 2 7 1.7672 0.5057
14 2 8 0.1439 -0.6143
14 2 9 0.6378 -0.1982
14 2 10 -1.1926 0.6128
14 4 0 -3.3387 0.0081
14 4 1 0.3725 2.2180
14 4 2 1.6744 -2.3970
14 4 3 -5.6132 1.5734
14 4 4 -4.1522 2.5413
14 4 5 -0.1377 -2.4197
14 4 6 1.1103 2.9387
14 4 7 2.2199 -2.4079
14 4 8 -1.9646 0.4996
14 4 9 -0.9194 0.5429
14 4 10 -0.4041 0.6912
14 6 0 -1.3638 -0.0015
14 6 1 1.6633 -2.6668
14 6 2 0.9452 -0.4129
14 6 3 -2.7579 1.2128
14 6 4 -4.3769 2.9555
14 6 5 -1.2868 -1.0114
14 6 6 3.6478 5.6991
14 6 7 0.3613 -0.1728
14 6 8 -1.4150 0.4034
14 6 9 -2.6100 0.4641
14 8 0 0.2898 0.0052
14 8 1 0.5799 -3.7171
14 8 2 1.1309 1.4347
14 8 3 1.6183 0.4110
14 8 4 -0.2510 -1.1960
14 8 5 -0.9754 -0.8039
14 8 6 2.6728 6.6171
14 8 7 -2.9365 5.0690
14 8 8 1.0404 -1.0071
14 8 9 -1.2488 0.2134
14 10 0 -0.6295 0.0039
14 10 1 -1.7000 -4.2015
14 10 2 -0.0792 1.0151
14 10 3 0.6708 1.6710
14 10 4 4.1279 -0.5983
14 10 5 4.2588 0.7392
14 10 6 0.1964 1.3443
14 10 7 -2.6707 4.2835
14 10 8 2.4002 -1.8469
14 12 0 -1.9696 0.0128
14 12 1 -2.0424 -7.2915
14 12 2 0.4331 1.1249
14 12 3 0.6505 0.4905
14 12 4 0.4915 -0.3721
14 12 5 3.0260 0.9463
14 12 6 -0.2356 0.5763
14 12 7 0.7576 1.3248
14 12 8 3.2449 -3.5315
14 14 0 4.4170 0.0271
14 14 1 -2.1807 -3.6041
14 14 2 -0.1710 0.8180
14 14 3 6.5249 -5.3331
14 14 4 -4.7022 -0.3711
14 14 5 -3.6226 -0.1188
14 14 6 0.6417 0.9420
14 14 7 1.3854 0.2740
14 16 0 5.0404 -0.0215
14 16 1 -0.1392 -4.4696
14 16 2 2.4548 3.2687
14 16 3 4.6930 -3.4850
14 16 4 -5.4279 -1.8961
14 16 5 -1.3536 -0.2222
14 18 1 1.1316 -3.5306
14 18 2 3.2285 4.3283
14 18 3 0.7929 -0.0889
15 1 0 2.0414 0.0166
15 1 1 1.8872 -1.7517
15 1 2 2.3723 0.5349
15 1 3 -2.3978 1.6366
15 1 4 2.2732 -1.1187
15 1 5 0.3231 -2.2895
15 1 6 -1.8599 1.1580
15 1 7 0.4324 0.9702
15 1 8 0.2792 0.6361
15 1 9 0.2050 -0.3027
15 3 0 -0.0313 -0.0055
15 3 1 2.6787 -0.4427
15 3 2 2.4589 -1.9065
15 3 3 -4.1835 1.2071
15 3 4 -1.4617 1.3020
15 3 5 0.8549 -2.0020
15 3 6 -0.4765 2.9078
15 3 7 1.0378 -0.6169
15 3 8 -1.1050 -0.4072
15 3 9 0.0126 0.1811
15 5 0 0.7242 0.0047
15 5 1 1.4589 -2.1565
15 5 2 -0.5601 -1.4173
15 5 3 -2.3242 0.3305
15 5 4 -3.1492 2.9499
15 5 5 -0.3436 0.4857
15 5 6 1.9289 4.3346
15 5 7 0.7921 -1.6104
15 5 8 -1.3641 -0.2729
15 5 9 -1.3404 0.3679
15 7 0 1.1273 0.0106
15 7 1 0.9774 -7.1591
15 7 2 -1.3215 2.5792
15 7 3 0.8463 1.4785
15 7 4 -2.8940 -0.8534
15 7 5 -1.9856 -0.4077
15 7 6 3.3682 6.0553
15 7 7 -1.5955 2.6402
15 7 8 0.1349 -0.2313
15 7 9 -1.2884 0.0102
15 9 0 1.4897 0.0133
15 9 1 0.2859 -6.5408
15 9 2 -2.2130 2.9545
15 9 3 1.1598 2.0466
15 9 4 0.4919 -1.8736
15 9 5 1.2343 0.3705
15 9 6 2.0481 2.4923
15 9 7 -2.9852 3.9749
15 9 8 1.1652 0.6181
15 11 0 -1.4285 -0.0088
15 11 1 -0.8033 -6.9257
15 11 2 -1.1156 1.0083
15 11 3 0.2306 2.8141
15 11 4 0.6058 -0.9885
15 11 5 3.6989 1.2590
15 11 6 0.9684 0.1995
15 11 7 -0.4927 1.4720
15 13 0 0.1406 0.0158
15 13 1 -2.5229 -4.1711
15 13 2 -0.7402 -0.6817
15 13 3 4.6489 -1.1825
15 13 4 -2.4287 -0.6766
15 13 5 -1.5499 -0.3624
15 15 0 3.9200 0.0012
15 15 1 -1.8781 -1.6888
15 15 2 -0.9266 0.1351
16 0 0 3.4727 0.0027
16 0 2 3.1710 5.1944
16 0 4 2.0726 0.1475
16 0 6 -1.3928 1.9927
16 2 0 3.3584 -0.0389
16 2 1 3.4908 -1.4815
16 2 2 2.9514 1.4299
16 2 3 -1.1026 -0.0384
16 2 4 0.4488 1.3489
16 2 5 1.5857 -0.8126
16 2 6 -0.7238 2.6353
16 2 7 -0.2665 0.9931
16 2 8 -0.4138 0.2947
16 4 0 3.8229 -0.0071
16 4 1 2.2444 -1.1589
16 4 2 0.1059 -2.4662
16 4 3 -0.1538 -1.8261
16 4 4 -0.7375 2.7965
16 4 5 1.7133 1.9069
16 4 6 0.4467 3.3380
16 4 7 -0.0926 -0.8930
16 6 0 2.8164 0.0052
16 6 1 0.1562 -5.9962
16 6 2 -2.2281 0.8555
16 6 3 1.8109 -0.0468
16 6 4 -1.4093 0.1909
16 6 5 -0.6844 1.0029
16 6 6 2.1286 4.4382
16 8 0 2.7588 0.0151
16 8 1 0.6506 -8.3771
16 8 2 -3.5462 3.9620
16 8 3 1.5516 1.8600
16 8 4 -1.1683 -1.7586
16 8 5 -0.8949 -0.5501
16 8 6 2.7634 2.7070
16 10 0 1.5405 -0.0224
16 10 1 1.3841 -6.4068
16 10 2 -3.5717 2.5422
16 10 3 -0.2258 2.2305
16 10 4 -0.1037 -0.8673
16 12 0 -1.1679 -0.0351
16 12 2 -1.2368 -0.0291
16 12 3 2.2555 1.2594
17 1 0 4.0552 -0.0263
17 1 1 1.9782 -1.0969
17 1 2 1.2084 5.5382
17 1 3 0.3347 -0.7388
17 1 4 1.2167 0.6584
17 1 5 0.9947 0.3499
17 1 6 -0.4316 2.8088
17 3 0 5.5772 -0.0263
17 3 1 2.6627 -0.8290
17 3 2 0.2607 -1.4359
17 3 3 1.4889 -3.0632
17 3 4 0.2091 2.5761
17 3 5 2.3844 2.4822
17 3 6 0.1935 2.5648
17 5 0 4.5984 0.0005
17 5 1 -0.0676 -2.2818
17 5 2 -1.4923 -1.9072
17 5 3 2.8625 -2.6767
17 5 4 0.5328 1.5010
17 5 5 1.3419 2.6431
17 5 6 0.6184 2.6526
17 7 0 2.8481 0.0035
17 7 1 -0.3262 -6.6363
17 7 2 -2.6698 2.7190
17 7 3 2.0945 0.5992
17 7 4 -0.1501 -0.7129
17 7 5 -0.4890 -0.2937
17 9 0 3.3495 -0.0127
17 9 1 2.0103 -6.0968
17 9 2 -4.2168 3.4596
17 9 3 -0.4230 1.1344
17 9 4 -0.2242 -0.0907
17 11 1 1.8484 -2.8887
17 11 2 -2.4867 1.4309
17 11 3 0.1076 0.6620
17 13 1 -0.4633 -0.5983
18 0 0 2.8356 0.0445
18 0 2 -1.9252 5.9655
18 2 0 4.2573 -0.0169
18 2 1 1.8012 -1.3588
18 2 2 -1.5504 1.1360
18 2 3 1.3839 -2.5749
18 4 0 4.8264 0.0027
18 4 1 0.1083 -0.2067
18 4 2 -1.2554 -3.3609
18 4 3 2.7163 -3.6602
18 6 0 2.3945 -0.0025
18 6 1 -1.0494 -2.3819
18 6 2 -1.0455 0.0335
18 6 3 2.0609 -1.0119
18 6 4 0.8851 0.5934
18 8 1 1.1924 -4.4148
18 8 2 -2.2173 2.8812
18 8 3 -0.4433 0.6266
18 8 4 0.3327 0.6605
19 3 0 2.6657 0.0046
19 3 1 0.0235 -0.8435
19 5 0 1.6093 0.0079
19 5 1 -1.2042 0.2032
0 0 0 0.0 0.0
;
_shelx_fab_checksum              49340
_olex2_submission_special_instructions 'No special instructions were received'
_oxdiff_exptl_absorpt_empirical_details
;
Empirical correction (ABSPACK) includes:
- Absorption correction using spherical harmonics
- Frame scaling
;
_oxdiff_exptl_absorpt_empirical_full_max 2.360
_oxdiff_exptl_absorpt_empirical_full_min 0.424
loop_
_space_group_symop_operation_xyz
'x, y, z'
'-x, -y, z'
'x, -y, z+1/2'
'-x, y, z+1/2'
'x+1/2, y+1/2, z'
'-x+1/2, -y+1/2, z'
'x+1/2, -y+1/2, z+1/2'
'-x+1/2, y+1/2, z+1/2'
loop_
_atom_site_label
_atom_site_type_symbol
_atom_site_fract_x
_atom_site_fract_y
_atom_site_fract_z
_atom_site_U_iso_or_equiv
_atom_site_adp_type
_atom_site_occupancy
_atom_site_site_symmetry_order
_atom_site_calc_flag
_atom_site_refinement_flags_posn
_atom_site_refinement_flags_adp
_atom_site_refinement_flags_occupancy
Fe1 Fe 0.250000 0.250000 0.0710(2) 0.0435(5) Uani 1 2 d S T P
S2 S 0.2159(3) 0.47800(14) 0.6273(3) 0.0730(9) Uani 1 1 d . . .
S1 S 0.1063(3) 0.45558(16) 0.5135(3) 0.0753(9) Uani 1 1 d . . .
N2 N 0.2126(5) 0.3194(4) 0.2034(8) 0.0455(16) Uani 1 1 d . . .
N1 N 0.3852(5) 0.2773(4) 0.0714(10) 0.0519(16) Uani 1 1 d . . .
N3 N 0.2244(7) 0.3217(4) 0.9339(9) 0.055(2) Uani 1 1 d . . .
C6 C 0.1289(7) 0.3501(5) 0.2011(11) 0.055(2) Uani 1 1 d . . .
H6 H 0.089655 0.342588 0.133006 0.066 Uiso 1 1 calc R . .
C5 C 0.0975(6) 0.3919(5) 0.2933(10) 0.055(2) Uani 1 1 d . . .
H5 H 0.039408 0.412974 0.285496 0.066 Uiso 1 1 calc R . .
C10 C 0.1732(7) 0.3106(5) 0.8355(11) 0.055(2) Uani 1 1 d . . .
H10 H 0.139742 0.271007 0.831889 0.066 Uiso 1 1 calc R . .
C4 C 0.1521(7) 0.4025(4) 0.3965(10) 0.052(2) Uani 1 1 d . . .
C3 C 0.2401(7) 0.3710(5) 0.4040(11) 0.056(2) Uani 1 1 d . . .
H3 H 0.279426 0.376592 0.472507 0.067 Uiso 1 1 calc R . .
B1 B 0.5808(6) 0.2843(8) 0.0617(18) 0.074(4) Uani 1 1 d . . .
H1A H 0.599322 0.284579 -0.024355 0.112 Uiso 1 1 calc GR . .
H1B H 0.604583 0.244956 0.101246 0.112 Uiso 1 1 calc GR . .
H1C H 0.605906 0.322744 0.102721 0.112 Uiso 1 1 calc GR . .
C7 C 0.2143(10) 0.4152(6) 0.7440(12) 0.068(3) Uani 1 1 d . . .
C1 C 0.4640(6) 0.2852(4) 0.0713(12) 0.054(2) Uani 1 1 d . . .
C2 C 0.2653(6) 0.3315(5) 0.3055(10) 0.049(2) Uani 1 1 d . . .
H2 H 0.324057 0.311120 0.309545 0.058 Uiso 1 1 calc R . .
C11 C 0.1651(7) 0.3541(5) 0.7351(11) 0.056(2) Uani 1 1 d . . .
H11 H 0.129128 0.343573 0.665365 0.067 Uiso 1 1 calc R . .
C8 C 0.2664(9) 0.4285(7) 0.8513(14) 0.069(3) Uani 1 1 d . . .
H8 H 0.296650 0.469069 0.861634 0.083 Uiso 1 1 calc R . .
C9 C 0.2721(9) 0.3799(5) 0.9422(11) 0.061(2) Uani 1 1 d . . .
H9 H 0.309958 0.387483 1.011508 0.074 Uiso 1 1 calc R . .
loop_
_atom_site_aniso_label
_atom_site_aniso_U_11
_atom_site_aniso_U_22
_atom_site_aniso_U_33
_atom_site_aniso_U_23
_atom_site_aniso_U_13
_atom_site_aniso_U_12
Fe1 0.0403(7) 0.0357(8) 0.0546(9) 0.000 0.000 0.0009(6)
S2 0.098(2) 0.0470(13) 0.0743(17) 0.0003(12) 0.0119(17) 0.0156(13)
S1 0.0799(19) 0.0656(17) 0.0803(18) 0.0070(14) 0.0173(16) 0.0312(15)
N2 0.036(3) 0.041(3) 0.059(5) 0.004(3) -0.004(3) -0.001(3)
N1 0.053(4) 0.048(4) 0.055(4) -0.005(4) 0.006(4) 0.005(3)
N3 0.063(5) 0.040(4) 0.063(5) -0.003(3) 0.010(4) 0.009(3)
C6 0.049(4) 0.047(4) 0.070(6) 0.011(4) -0.005(4) 0.004(4)
C5 0.039(4) 0.048(4) 0.078(6) 0.022(4) -0.003(4) 0.011(3)
C10 0.050(5) 0.044(4) 0.071(6) -0.005(4) 0.009(4) -0.001(4)
C4 0.050(4) 0.035(4) 0.071(6) 0.011(4) 0.007(4) 0.003(3)
C3 0.049(5) 0.054(5) 0.065(6) -0.002(5) -0.006(4) 0.019(4)
B1 0.020(3) 0.097(9) 0.107(9) 0.044(9) 0.004(5) -0.013(4)
C7 0.082(8) 0.054(6) 0.070(7) 0.005(5) 0.018(6) 0.009(5)
C1 0.048(4) 0.040(4) 0.074(5) 0.015(5) 0.002(5) -0.001(3)
C2 0.040(4) 0.045(5) 0.062(6) 0.001(4) -0.003(3) 0.011(3)
C11 0.056(5) 0.048(5) 0.064(6) 0.000(4) 0.005(4) 0.012(4)
C8 0.077(7) 0.054(6) 0.077(8) -0.001(6) 0.010(6) 0.009(5)
C9 0.074(6) 0.046(5) 0.064(6) 0.000(5) 0.004(5) -0.001(4)
loop_
_atom_type_symbol
_atom_type_description
_atom_type_scat_dispersion_real
_atom_type_scat_dispersion_imag
_atom_type_scat_source
C C 0.0033 0.0016 'International Tables Vol C Tables 4.2.6.8 and 6.1.1.4'
H H 0.0000 0.0000 'International Tables Vol C Tables 4.2.6.8 and 6.1.1.4'
B B 0.0013 0.0007 'International Tables Vol C Tables 4.2.6.8 and 6.1.1.4'
Fe Fe 0.3463 0.8444 'International Tables Vol C Tables 4.2.6.8 and 6.1.1.4'
N N 0.0061 0.0033 'International Tables Vol C Tables 4.2.6.8 and 6.1.1.4'
S S 0.1246 0.1234 'International Tables Vol C Tables 4.2.6.8 and 6.1.1.4'
loop_
_geom_angle_atom_site_label_1
_geom_angle_atom_site_label_2
_geom_angle_atom_site_label_3
_geom_angle
_geom_angle_site_symmetry_1
_geom_angle_site_symmetry_3
N2 Fe1 N2 93.0(4) . 6
N2 Fe1 N3 88.3(3) . 1_554
N2 Fe1 N3 175.1(4) 6 1_554
N2 Fe1 N3 175.1(4) . 6_554
N2 Fe1 N3 88.3(3) 6 6_554
N1 Fe1 N2 86.5(3) 6 .
N1 Fe1 N2 93.3(3) . .
N1 Fe1 N2 93.3(3) 6 6
N1 Fe1 N2 86.5(3) . 6
N1 Fe1 N1 179.8(6) . 6
N1 Fe1 N3 88.7(4) . 1_554
N1 Fe1 N3 91.5(4) 6 1_554
N1 Fe1 N3 91.4(4) . 6_554
N1 Fe1 N3 88.7(4) 6 6_554
N3 Fe1 N3 90.7(5) 6_554 1_554
C7 S2 S1 104.8(5) . .
C4 S1 S2 106.2(4) . .
C6 N2 Fe1 121.9(7) . .
C6 N2 C2 115.0(9) . .
C2 N2 Fe1 122.6(6) . .
C1 N1 Fe1 172.0(8) . .
C10 N3 Fe1 123.3(7) . 1_556
C10 N3 C9 118.6(10) . .
C9 N3 Fe1 117.7(8) . 1_556
N2 C6 H6 118.1 . .
N2 C6 C5 123.9(10) . .
C5 C6 H6 118.1 . .
C6 C5 H5 120.2 . .
C4 C5 C6 119.7(8) . .
C4 C5 H5 120.2 . .
N3 C10 H10 117.8 . .
N3 C10 C11 124.5(9) . .
C11 C10 H10 117.8 . .
C5 C4 S1 117.4(7) . .
C5 C4 C3 118.6(10) . .
C3 C4 S1 124.0(9) . .
C4 C3 H3 121.6 . .
C2 C3 C4 116.9(10) . .
C2 C3 H3 121.6 . .
H1A B1 H1B 109.5 . .
H1A B1 H1C 109.5 . .
H1B B1 H1C 109.5 . .
C1 B1 H1A 109.5 . .
C1 B1 H1B 109.5 . .
C1 B1 H1C 109.5 . .
C11 C7 S2 125.1(11) . .
C8 C7 S2 115.9(10) . .
C8 C7 C11 118.9(11) . .
N1 C1 B1 170.6(12) . .
N2 C2 C3 125.9(8) . .
N2 C2 H2 117.0 . .
C3 C2 H2 117.0 . .
C10 C11 C7 116.9(11) . .
C10 C11 H11 121.5 . .
C7 C11 H11 121.5 . .
C7 C8 H8 120.8 . .
C9 C8 C7 118.5(12) . .
C9 C8 H8 120.8 . .
N3 C9 C8 122.5(12) . .
N3 C9 H9 118.8 . .
C8 C9 H9 118.8 . .
loop_
_geom_bond_atom_site_label_1
_geom_bond_atom_site_label_2
_geom_bond_distance
_geom_bond_site_symmetry_2
Fe1 N2 2.062(8) .
Fe1 N2 2.062(8) 6
Fe1 N1 1.995(8) .
Fe1 N1 1.995(8) 6
Fe1 N3 2.092(9) 1_554
Fe1 N3 2.092(9) 6_554
S2 S1 2.027(6) .
S2 C7 1.781(12) .
S1 C4 1.771(11) .
N2 C6 1.339(12) .
N2 C2 1.348(13) .
N1 C1 1.129(12) .
N3 C10 1.300(15) .
N3 C9 1.358(14) .
C6 H6 0.9300 .
C6 C5 1.374(16) .
C5 H5 0.9300 .
C5 C4 1.368(15) .
C10 H10 0.9300 .
C10 C11 1.393(16) .
C4 C3 1.403(13) .
C3 H3 0.9300 .
C3 C2 1.369(15) .
B1 H1A 0.9600 .
B1 H1B 0.9600 .
B1 H1C 0.9600 .
B1 C1 1.659(12) .
C7 C11 1.418(18) .
C7 C8 1.39(2) .
C2 H2 0.9300 .
C11 H11 0.9300 .
C8 H8 0.9300 .
C8 C9 1.383(18) .
C9 H9 0.9300 .
loop_
_smtbx_masks_void_nr
_smtbx_masks_void_average_x
_smtbx_masks_void_average_y
_smtbx_masks_void_average_z
_smtbx_masks_void_volume
_smtbx_masks_void_count_electrons
1 0.000 0.000 -0.476 300.4 53.3
2 0.500 0.500 -0.329 300.4 53.3
