#------------------------------------------------------------------------------
#$URL: file:///home/coder/svn-repositories/cod/cif/1/52/50/1525023.cif $
#------------------------------------------------------------------------------
#
# The original file is available in the Crystallography Open Database (COD),
# http://www.crystallography.net/
#

data_SmFe12

loop_
_chemical_formula_sum            'Fe12 Sm'
_space_group_IT_number           139
_symmetry_space_group_name_Hall  '-I 4 2'
_symmetry_space_group_name_H-M   'I 4/m m m'
_cell_angle_alpha                90
_cell_angle_beta                 90
_cell_angle_gamma                90
_cell_formula_units_Z            2
_cell_length_a                   8.59
_cell_length_b                   8.59
_cell_length_c                   4.804
_cell_volume                     354.478
_cod_data_source_block           Fe12 Sm1
_cod_original_formula_sum        'Fe12 Sm1'
loop_
_symmetry_equiv_pos_as_xyz
x,y,z
-y,x,z
-x,-y,z
y,-x,z
x,-y,-z
y,x,-z
-x,y,-z
-y,-x,-z
-x,-y,-z
y,-x,-z
x,y,-z
-y,x,-z
-x,y,z
-y,-x,z
x,-y,z
y,x,z
x+1/2,y+1/2,z+1/2
-y+1/2,x+1/2,z+1/2
-x+1/2,-y+1/2,z+1/2
y+1/2,-x+1/2,z+1/2
x+1/2,-y+1/2,-z+1/2
y+1/2,x+1/2,-z+1/2
-x+1/2,y+1/2,-z+1/2
-y+1/2,-x+1/2,-z+1/2
-x+1/2,-y+1/2,-z+1/2
y+1/2,-x+1/2,-z+1/2
x+1/2,y+1/2,-z+1/2
-y+1/2,x+1/2,-z+1/2
-x+1/2,y+1/2,z+1/2
-y+1/2,-x+1/2,z+1/2
x+1/2,-y+1/2,z+1/2
y+1/2,x+1/2,z+1/2
loop_
_atom_site_label
_atom_site_type_symbol
_atom_site_fract_x
_atom_site_fract_y
_atom_site_fract_z
_atom_site_occupancy
_atom_site_U_iso_or_equiv
Sm1 Sm 0.000 0.00 0.00 1.000 0.0
Fe1 Fe 0.250 0.25 0.25 1.000 0.0
Fe2 Fe 0.278 0.50 0.00 1.000 0.0
Fe3 Fe 0.352 0.00 0.00 1.000 0.0
